   Input file: phreeqc_postfire_water_sensitivity_llnl.phr
  Output file: phreeqc_postfire_water_sensitivity_llnl.out
Database file: /Users/aibao/.local/phreeqc/phreeqc-3.5.0-14000/database/llnl.dat

------------------
Reading data base.
------------------

	LLNL_AQUEOUS_MODEL_PARAMETERS
	NAMED_EXPRESSIONS
	SOLUTION_MASTER_SPECIES
	SOLUTION_SPECIES
	PHASES
	EXCHANGE_MASTER_SPECIES
	EXCHANGE_SPECIES
	SURFACE_MASTER_SPECIES
	SURFACE_SPECIES
	RATES
	END
------------------------------------
Reading input data for simulation 1.
------------------------------------

	TITLE Post-fire water chemistry sensitivity screen for EARMP-like surface water
	SOLUTION 1 EARMP_2023_low_alkalinity_upper_bound
	    units mg/L
	    temp 10
	    pH 6.59
	    pe 4
	    Alkalinity 5 as CaCO3
	    Ca 2
	    Mg 1
	    Na 2
	    K 0.5
	    Cl 2
	    S(6) 2 as SO4
	    U(6) 0.0001
	    Ra 1.35e-10
	    Pb 0.0001
	SOLUTION 2 Ash_alkalinity_pulse_upper_bound
	    units mg/L
	    temp 10
	    pH 8.20
	    pe 4
	    Alkalinity 50 as CaCO3
	    Ca 20
	    Mg 3
	    Na 5
	    K 3
	    Cl 3
	    S(6) 5 as SO4
	    U(6) 0.0001
	    Ra 1.35e-10
	    Pb 0.0001
	SELECTED_OUTPUT 1
	    file phreeqc_postfire_water_sensitivity_llnl.sel
	    reset false
	    simulation true
	    state true
	    solution true
	    ph true
	    pe true
	    ionic_strength true
	    charge_balance true
	    alkalinity true
	    totals C Ca S(6) U Ra Pb
	    saturation_indices Calcite Gypsum Barite RaSO4 UO2CO3 UO2(OH)2(beta) UO2(am) Cerussite Anglesite
	    molalities UO2+2 UO2CO3 UO2(CO3)2-2 UO2(CO3)3-4 Ra+2 RaSO4 Pb+2 PbCO3 Pb(CO3)2-2
	END
-----
TITLE
-----

 Post-fire water chemistry sensitivity screen for EARMP-like surface water

WARNING: Did not find species, RaSO4.
-------------------------------------------
Beginning of initial solution calculations.
-------------------------------------------

Initial solution 1.	EARMP_2023_low_alkalinity_upper_bound

WARNING: Equivalent wt for alkalinity should be Ca.5(CO3).5. Using 50.0355 g/eq.
-----------------------------Solution composition------------------------------

	Elements           Molality       Moles

	Alkalinity        9.993e-05   9.993e-05
	Ca                4.990e-05   4.990e-05
	Cl                5.641e-05   5.641e-05
	K                 1.279e-05   1.279e-05
	Mg                4.114e-05   4.114e-05
	Na                8.700e-05   8.700e-05
	Pb                4.826e-10   4.826e-10
	Ra                5.973e-16   5.973e-16
	S(6)              2.082e-05   2.082e-05
	U(6)              4.201e-10   4.201e-10

----------------------------Description of solution----------------------------

                                       pH  =   6.590    
                                       pe  =   4.000    
                        Activity of water  =   1.000
                 Ionic strength (mol/kgw)  =   3.509e-04
                       Mass of water (kg)  =   1.000e+00
                    Total carbon (mol/kg)  =   1.744e-04
                       Total CO2 (mol/kg)  =   1.744e-04
                         Temperature (°C)  =  10.00
                  Electrical balance (eq)  =   8.389e-05
 Percent error, 100*(Cat-|An|)/(Cat+|An|)  =  17.51
                               Iterations  =   4
                                  Total H  = 1.110508e+02
                                  Total O  = 5.552586e+01

----------------------------Distribution of species----------------------------

                                               Log       Log       Log    mole V
   Species          Molality    Activity  Molality  Activity     Gamma   cmł/mol

   H+              2.623e-07   2.570e-07    -6.581    -6.590    -0.009      0.00
   OH-             1.150e-08   1.126e-08    -7.939    -7.948    -0.009     (0)  
   H2O             5.553e+01   1.000e+00     1.744    -0.000     0.000     18.02
C(4)          1.744e-04
   HCO3-           1.000e-04   9.795e-05    -4.000    -4.009    -0.009     (0)  
   CO2             7.422e-05   7.423e-05    -4.129    -4.129     0.000     (0)  
   CaHCO3+         5.357e-08   5.246e-08    -7.271    -7.280    -0.009     (0)  
   MgHCO3+         4.277e-08   4.188e-08    -7.369    -7.378    -0.009     (0)  
   NaHCO3          1.595e-08   1.595e-08    -7.797    -7.797     0.000     (0)  
   CO3-2           1.325e-08   1.218e-08    -7.878    -7.914    -0.037     (0)  
   CaCO3           8.998e-10   8.998e-10    -9.046    -9.046     0.000     (0)  
   MgCO3           3.905e-10   3.905e-10    -9.408    -9.408     0.000     (0)  
   UO2CO3          2.908e-11   2.908e-11   -10.536   -10.536     0.000     (0)  
   PbCO3           2.650e-11   2.650e-11   -10.577   -10.577     0.000     (0)  
   UO2(CO3)2-2     5.439e-12   4.999e-12   -11.264   -11.301    -0.037     (0)  
   NaCO3-          5.381e-12   5.269e-12   -11.269   -11.278    -0.009     (0)  
   (UO2)2CO3(OH)3-   3.645e-14   3.569e-14   -13.438   -13.447    -0.009     (0)  
   UO2(CO3)3-4     1.325e-14   9.454e-15   -13.878   -14.024    -0.147     (0)  
   Pb(CO3)2-2      3.405e-16   3.130e-16   -15.468   -15.504    -0.037     (0)  
   (UO2)3(OH)5CO2+   7.540e-25   7.383e-25   -24.123   -24.132    -0.009     (0)  
   (UO2)3O(OH)2(HCO3)+   6.079e-25   5.953e-25   -24.216   -24.225    -0.009     (0)  
   (UO2)3(CO3)6-6   5.014e-30   2.347e-30   -29.300   -29.630    -0.330     (0)  
   (UO2)11(CO3)6(OH)12-2   0.000e+00   0.000e+00   -66.298   -66.334    -0.037     (0)  
Ca            4.990e-05
   Ca+2            4.974e-05   4.576e-05    -4.303    -4.339    -0.036     (0)  
   CaSO4           1.099e-07   1.099e-07    -6.959    -6.959     0.000     (0)  
   CaHCO3+         5.357e-08   5.246e-08    -7.271    -7.280    -0.009     (0)  
   CaCO3           8.998e-10   8.998e-10    -9.046    -9.046     0.000     (0)  
   CaCl+           5.297e-10   5.186e-10    -9.276    -9.285    -0.009     (0)  
   CaOH+           2.568e-11   2.515e-11   -10.590   -10.599    -0.009     (0)  
   CaCl2           3.991e-14   3.991e-14   -13.399   -13.399     0.000     (0)  
Cl(-1)        5.641e-05
   Cl-             5.641e-05   5.523e-05    -4.249    -4.258    -0.009     (0)  
   MgCl+           1.718e-09   1.682e-09    -8.765    -8.774    -0.009     (0)  
   NaCl            7.369e-10   7.369e-10    -9.133    -9.133     0.000     (0)  
   CaCl+           5.297e-10   5.186e-10    -9.276    -9.285    -0.009     (0)  
   KCl             1.689e-11   1.689e-11   -10.772   -10.772     0.000     (0)  
   HCl             3.071e-12   3.071e-12   -11.513   -11.513     0.000     (0)  
   PbCl+           5.768e-13   5.648e-13   -12.239   -12.248    -0.009     (0)  
   CaCl2           3.991e-14   3.991e-14   -13.399   -13.399     0.000     (0)  
   PbCl2           1.093e-16   1.093e-16   -15.961   -15.961     0.000     (0)  
   UO2Cl+          3.658e-17   3.582e-17   -16.437   -16.446    -0.009     (0)  
   PbCl3-          3.109e-21   3.044e-21   -20.507   -20.516    -0.009     (0)  
   UO2Cl2          8.763e-23   8.763e-23   -22.057   -22.057     0.000     (0)  
   PbCl4-2         1.665e-25   1.530e-25   -24.779   -24.815    -0.037     (0)  
Cl(1)         0.000e+00
   HClO            0.000e+00   0.000e+00   -43.058   -43.058     0.000     (0)  
   ClO-            0.000e+00   0.000e+00   -44.028   -44.037    -0.009     (0)  
Cl(3)         0.000e+00
   ClO2-           0.000e+00   0.000e+00   -76.525   -76.534    -0.009     (0)  
   HClO2           0.000e+00   0.000e+00   -79.954   -79.954     0.000     (0)  
Cl(5)         0.000e+00
   ClO3-           0.000e+00   0.000e+00   -94.439   -94.448    -0.009     (0)  
   PbClO3+         0.000e+00   0.000e+00  -104.068  -104.077    -0.009     (0)  
   UO2ClO3+        0.000e+00   0.000e+00  -106.189  -106.198    -0.009     (0)  
   Pb(ClO3)2       0.000e+00   0.000e+00  -198.818  -198.818     0.000     (0)  
Cl(7)         0.000e+00
   ClO4-           0.000e+00   0.000e+00  -116.770  -116.780    -0.009     (0)  
H(0)          5.081e-25
   H2              2.540e-25   2.541e-25   -24.595   -24.595     0.000     (0)  
K             1.279e-05
   K+              1.279e-05   1.252e-05    -4.893    -4.902    -0.009     (0)  
   KSO4-           1.839e-09   1.801e-09    -8.735    -8.745    -0.009     (0)  
   KCl             1.689e-11   1.689e-11   -10.772   -10.772     0.000     (0)  
   KOH             1.689e-13   1.689e-13   -12.772   -12.772     0.000     (0)  
   KHSO4           2.325e-16   2.325e-16   -15.634   -15.634     0.000     (0)  
Mg            4.114e-05
   Mg+2            4.097e-05   3.773e-05    -4.388    -4.423    -0.036     (0)  
   MgSO4           1.282e-07   1.282e-07    -6.892    -6.892     0.000     (0)  
   MgHCO3+         4.277e-08   4.188e-08    -7.369    -7.378    -0.009     (0)  
   MgCl+           1.718e-09   1.682e-09    -8.765    -8.774    -0.009     (0)  
   MgCO3           3.905e-10   3.905e-10    -9.408    -9.408     0.000     (0)  
   Mg4(OH)4+4      1.154e-31   8.257e-32   -30.938   -31.083    -0.145     (0)  
Na            8.700e-05
   Na+             8.697e-05   8.516e-05    -4.061    -4.070    -0.009     (0)  
   NaHCO3          1.595e-08   1.595e-08    -7.797    -7.797     0.000     (0)  
   NaSO4-          1.087e-08   1.064e-08    -7.964    -7.973    -0.009     (0)  
   NaCl            7.369e-10   7.369e-10    -9.133    -9.133     0.000     (0)  
   NaCO3-          5.381e-12   5.269e-12   -11.269   -11.278    -0.009     (0)  
   NaOH            1.724e-13   1.724e-13   -12.763   -12.763     0.000     (0)  
O(0)          0.000e+00
   O2              0.000e+00   0.000e+00   -48.099   -48.099     0.000     (0)  
Pb(2)         4.826e-10
   Pb+2            4.242e-10   3.900e-10    -9.372    -9.409    -0.037     (0)  
   PbOH+           3.127e-11   3.062e-11   -10.505   -10.514    -0.009     (0)  
   PbCO3           2.650e-11   2.650e-11   -10.577   -10.577     0.000     (0)  
   PbCl+           5.768e-13   5.648e-13   -12.239   -12.248    -0.009     (0)  
   Pb(OH)2         4.796e-14   4.796e-14   -13.319   -13.319     0.000     (0)  
   Pb(CO3)2-2      3.405e-16   3.130e-16   -15.468   -15.504    -0.037     (0)  
   PbCl2           1.093e-16   1.093e-16   -15.961   -15.961     0.000     (0)  
   Pb(OH)3-        1.928e-18   1.887e-18   -17.715   -17.724    -0.009     (0)  
   Pb2OH+3         2.877e-19   2.383e-19   -18.541   -18.623    -0.082     (0)  
   PbCl3-          3.109e-21   3.044e-21   -20.507   -20.516    -0.009     (0)  
   PbCl4-2         1.665e-25   1.530e-25   -24.779   -24.815    -0.037     (0)  
   Pb3(OH)4+2      1.947e-26   1.790e-26   -25.711   -25.747    -0.037     (0)  
   Pb4(OH)4+4      9.756e-33   6.983e-33   -32.011   -32.156    -0.145     (0)  
   Pb6(OH)8+4      0.000e+00   0.000e+00   -47.149   -47.294    -0.145     (0)  
   PbClO3+         0.000e+00   0.000e+00  -104.068  -104.077    -0.009     (0)  
   Pb(ClO3)2       0.000e+00   0.000e+00  -198.818  -198.818     0.000     (0)  
Pb(4)         0.000e+00
   Pb+4            0.000e+00   0.000e+00   -60.673   -60.819    -0.145     (0)  
Ra            5.973e-16
   Ra+2            5.973e-16   5.493e-16   -15.224   -15.260    -0.036     (0)  
S(6)          2.082e-05
   SO4-2           2.057e-05   1.891e-05    -4.687    -4.723    -0.037     (0)  
   MgSO4           1.282e-07   1.282e-07    -6.892    -6.892     0.000     (0)  
   CaSO4           1.099e-07   1.099e-07    -6.959    -6.959     0.000     (0)  
   NaSO4-          1.087e-08   1.064e-08    -7.964    -7.973    -0.009     (0)  
   KSO4-           1.839e-09   1.801e-09    -8.735    -8.745    -0.009     (0)  
   HSO4-           3.293e-10   3.224e-10    -9.482    -9.492    -0.009     (0)  
   UO2SO4          7.975e-15   7.975e-15   -14.098   -14.098     0.000     (0)  
   KHSO4           2.325e-16   2.325e-16   -15.634   -15.634     0.000     (0)  
   UO2(SO4)2-2     9.971e-19   9.165e-19   -18.001   -18.038    -0.037     (0)  
   H2SO4           1.191e-19   1.191e-19   -18.924   -18.924     0.000     (0)  
U(6)          4.201e-10
   UO2(OH)2        3.781e-10   3.781e-10    -9.422    -9.422     0.000     (0)  
   UO2CO3          2.908e-11   2.908e-11   -10.536   -10.536     0.000     (0)  
   UO2(CO3)2-2     5.439e-12   4.999e-12   -11.264   -11.301    -0.037     (0)  
   UO2OH+          4.998e-12   4.894e-12   -11.301   -11.310    -0.009     (0)  
   UO2(OH)3-       1.860e-12   1.821e-12   -11.730   -11.740    -0.009     (0)  
   UO2+2           5.607e-13   5.155e-13   -12.251   -12.288    -0.037     (0)  
   (UO2)2CO3(OH)3-   3.645e-14   3.569e-14   -13.438   -13.447    -0.009     (0)  
   UO2(CO3)3-4     1.325e-14   9.454e-15   -13.878   -14.024    -0.147     (0)  
   UO2SO4          7.975e-15   7.975e-15   -14.098   -14.098     0.000     (0)  
   UO2Cl+          3.658e-17   3.582e-17   -16.437   -16.446    -0.009     (0)  
   (UO2)2(OH)2+2   4.410e-18   4.054e-18   -17.356   -17.392    -0.037     (0)  
   UO2(SO4)2-2     9.971e-19   9.165e-19   -18.001   -18.038    -0.037     (0)  
   UO2(OH)4-2      1.201e-19   1.104e-19   -18.920   -18.957    -0.037     (0)  
   (UO2)3(OH)5+    3.727e-21   3.649e-21   -20.429   -20.438    -0.009     (0)  
   (UO2)2OH+3      2.450e-21   2.029e-21   -20.611   -20.693    -0.082     (0)  
   (UO2)3(OH)7-    1.678e-22   1.643e-22   -21.775   -21.784    -0.009     (0)  
   UO2Cl2          8.763e-23   8.763e-23   -22.057   -22.057     0.000     (0)  
   (UO2)3(OH)4+2   4.019e-23   3.695e-23   -22.396   -22.432    -0.037     (0)  
   (UO2)3(OH)5CO2+   7.540e-25   7.383e-25   -24.123   -24.132    -0.009     (0)  
   (UO2)3O(OH)2(HCO3)+   6.079e-25   5.953e-25   -24.216   -24.225    -0.009     (0)  
   (UO2)4(OH)7+    1.089e-25   1.067e-25   -24.963   -24.972    -0.009     (0)  
   (UO2)3(CO3)6-6   5.014e-30   2.347e-30   -29.300   -29.630    -0.330     (0)  
   (UO2)11(CO3)6(OH)12-2   0.000e+00   0.000e+00   -66.298   -66.334    -0.037     (0)  
   UO2ClO3+        0.000e+00   0.000e+00  -106.189  -106.198    -0.009     (0)  

------------------------------Saturation indices-------------------------------

  Phase               SI** log IAP   log K(283 K,   1 atm)

  Anglesite        -6.12    -14.13   -8.02  PbSO4
  Anhydrite        -4.88     -9.06   -4.18  CaSO4
  Antarcticite    -16.95    -12.86    4.09  CaCl2:6H2O
  Aphthitalite    -24.34    -28.22   -3.89  NaK3(SO4)2
  Aragonite        -3.97     -1.76    2.21  CaCO3
  Arcanite        -12.46    -14.53   -2.07  K2SO4
  Artinite        -13.94      6.91   20.85  Mg2CO3(OH)2:3H2O
  Bassanite        -5.53     -9.06   -3.53  CaSO4:0.5H2O
  Bischofite      -17.33    -12.94    4.39  MgCl2:6H2O
  Bloedite        -19.53    -22.01   -2.48  Na2Mg(SO4)2:4H2O
  Brucite          -8.57      8.76   17.32  Mg(OH)2
  Burkeite        -40.77    -31.28    9.49  Na6CO3(SO4)2
  C               -30.27     37.50   67.77  C
  C(g)           -154.53     37.50  192.03  C
  Ca             -114.58     32.89  147.47  Ca
  Ca(g)          -141.46     32.89  174.35  Ca
  Ca2Cl2(OH)2:H2O -30.30     -4.01   26.29  Ca2Cl2(OH)2:H2O
  Ca4Cl2(OH)6:13H2O -54.66     13.67   68.33  Ca4Cl2(OH)6:13H2O
  Calcite          -3.82     -1.76    2.07  CaCO3
  Carnallite      -26.37    -22.10    4.27  KMgCl3:6H2O
  CaSO4:0.5H2O(beta)  -5.72     -9.06   -3.34  CaSO4:0.5H2O
  CaUO4            -7.43      9.73   17.16  CaUO4
  Cerussite        -3.46     -6.83   -3.37  PbCO3
  Chloromagnesite -36.23    -12.94   23.29  MgCl2
  Cl2(g)          -49.23    -45.75    3.48  Cl2
  CO2(g)           -2.87    -10.60   -7.73  CO2
  Cotunnite       -12.81    -17.92   -5.12  PbCl2
  Dolomite         -6.64     -3.60    3.04  CaMg(CO3)2
  Dolomite-dis     -8.29     -3.60    4.69  CaMg(CO3)2
  Dolomite-ord     -6.63     -3.60    3.03  CaMg(CO3)2
  Epsomite         -7.18     -9.15   -1.96  MgSO4:7H2O
  Gaylussite      -18.48     -7.32   11.16  CaNa2(CO3)2:5H2O
  Glauberite      -16.46    -21.93   -5.47  Na2Ca(SO4)2
  Gypsum           -4.55     -9.06   -4.51  CaSO4:2H2O
  H2(g)           -21.54    -24.60   -3.05  H2
  H2O(g)           -2.00     -0.00    2.00  H2O
  Halite           -9.86     -8.33    1.53  NaCl
  HCl(g)          -17.84    -10.85    6.99  HCl
  Hexahydrite      -7.42     -9.15   -1.73  MgSO4:6H2O
  Huntite         -19.10     -7.29   11.82  CaMg3(CO3)4
  Hydrocerussite  -11.73     -9.88    1.85  Pb3(CO3)2(OH)2
  Hydromagnesite  -32.17      1.39   33.56  Mg5(CO3)4(OH)2:4H2O
  Hydrophilite    -25.36    -12.86   12.50  CaCl2
  Ice              -0.08     -0.00    0.08  H2O
  K               -60.90     13.71   74.61  K
  K(g)            -72.33     13.71   86.04  K
  K2CO3:1.5H2O    -20.60     -7.22   13.38  K2CO3:1.5H2O
  K2O             -84.62      3.38   88.00  K2O
  K2UO4           -31.24      4.27   35.50  K2UO4
  K3H(SO4)2       -27.12    -30.74   -3.62  K3H(SO4)2
  K8H4(CO3)6:3H2O -77.80    -50.09   27.71  K8H4(CO3)6:3H2O
  Kainite         -18.00    -18.31   -0.31  KMgClSO4:3H2O
  Kalicinite       -9.20     -8.91    0.28  KHCO3
  Kieserite        -8.88     -9.15   -0.27  MgSO4:H2O
  KMgCl3          -44.55    -22.10   22.45  KMgCl3
  KMgCl3:2H2O     -36.76    -22.10   14.66  KMgCl3:2H2O
  KNaCO3:6H2O     -16.65     -6.39   10.26  KNaCO3:6H2O
  Lanarkite       -10.06    -10.36   -0.30  Pb2(SO4)O
  Lansfordite      -6.68     -1.84    4.84  MgCO3:5H2O
  Leonite         -19.56    -23.67   -4.11  K2Mg(SO4)2:4H2O
  Lime            -25.53      8.84   34.37  CaO
  Litharge         -9.48      3.77   13.25  PbO
  Magnesite        -4.53     -1.84    2.69  MgCO3
  Massicot         -9.68      3.77   13.45  PbO
  Mercallite      -14.78    -16.22   -1.44  KHSO4
  Mg              -96.63     32.81  129.44  Mg
  Mg(g)          -117.72     32.81  150.52  Mg
  Mg1.25SO4(OH)0.5:0.5H2O -13.06     -6.96    6.10  Mg1.25SO4(OH)0.5:0.5H2O
  Mg1.5SO4(OH)    -15.15     -4.77   10.38  Mg1.5SO4(OH)
  MgCl2:2H2O      -26.53    -12.94   13.59  MgCl2:2H2O
  MgCl2:4H2O      -20.66    -12.94    7.73  MgCl2:4H2O
  MgCl2:H2O       -30.12    -12.94   17.18  MgCl2:H2O
  MgOHCl          -19.09     -2.09   17.00  MgOHCl
  MgSO4           -14.81     -9.15    5.67  MgSO4
  MgUO4           -15.20      9.65   24.85  MgUO4
  Minium          -43.17    -26.92   16.26  Pb3O4
  Mirabilite      -11.01    -12.86   -1.85  Na2SO4:10H2O
  Misenite       -100.75   -111.82  -11.08  K8H6(SO4)7
  Monohydrocalcite  -4.63     -1.76    2.87  CaCO3:H2O
  Na              -56.36     14.54   70.90  Na
  Na(g)           -70.84     14.54   85.39  Na
  Na2CO3          -17.10     -5.56   11.54  Na2CO3
  Na2CO3:7H2O     -15.28     -5.56    9.72  Na2CO3:7H2O
  Na2O            -65.65      5.04   70.69  Na2O
  Na2U2O7         -17.37      6.82   24.20  Na2U2O7
  Na2UO4(alpha)   -25.70      5.93   31.64  Na2UO4
  Na3H(SO4)2      -27.36    -28.25   -0.89  Na3H(SO4)2
  Na4Ca(SO4)3:2H2O -28.89    -34.79   -5.89  Na4Ca(SO4)3:2H2O
  Na4UO2(CO3)3    -24.86    -20.82    4.04  Na4UO2(CO3)3
  Nahcolite        -7.80     -8.08   -0.28  NaHCO3
  Natron          -14.71     -5.56    9.15  Na2CO3:10H2O
  Nesquehonite     -7.64     -1.84    5.80  MgCO3:3H2O
  O2(g)           -45.33    -48.10   -2.77  O2
  Oxychloride-Mg  -19.17      6.67   25.83  Mg2Cl(OH)3:4H2O
  Paralaurionite   -7.19     -7.08    0.11  PbClOH
  Pb              -21.94     27.82   49.76  Pb
  Pb(g)           -52.18     27.82   80.00  Pb
  Pb2Cl2CO3       -15.13    -24.75   -9.62  Pb2Cl2CO3
  Pb3SO6          -17.88     -6.59   11.29  Pb3SO6
  Pb4Cl2(OH)6     -23.89     -6.61   17.28  Pb4Cl2(OH)6
  Pb4SO7          -25.78     -2.82   22.96  Pb4SO7
  PbCO3.PbO       -13.23     -3.06   10.17  PbCO3.PbO
  Pentahydrite     -7.76     -9.15   -1.39  MgSO4:5H2O
  Periclase       -13.97      8.76   22.72  MgO
  Phosgenite      -14.62    -24.75  -10.14  Pb2(CO3)Cl2
  Picromerite     -19.24    -23.67   -4.44  K2Mg(SO4)2:6H2O
  Pirssonite      -18.64     -7.32   11.32  Na2Ca(CO3)2:2H2O
  Plattnerite     -26.49    -34.46   -7.97  PbO2
  Polyhalite      -27.49    -41.80  -14.31  K2MgCa2(SO4)4:2H2O
  Portlandite     -14.91      8.84   23.75  Ca(OH)2
  Ra             -126.88     21.97  148.85  Ra
  RaCl2:2H2O      -22.69    -23.78   -1.09  RaCl2:2H2O
  RaSO4            -9.12    -19.98  -10.86  RaSO4
  Rutherfordine    -5.77     -9.71   -3.94  UO2CO3
  Schoepite        -4.42      0.89    5.31  UO3:2H2O
  Schoepite-dehy(.393)  -6.48      0.89    7.38  UO3:.393H2O
  Schoepite-dehy(.648)  -5.93      0.89    6.82  UO3:.648H2O
  Schoepite-dehy(.85)  -4.74      0.89    5.63  UO3:.85H2O
  Schoepite-dehy(.9)  -4.65      0.89    5.54  UO3:.9H2O
  Schoepite-dehy(1.0)  -4.76      0.89    5.65  UO3:H2O
  Starkeyite       -8.15     -9.15   -1.00  MgSO4:4H2O
  Sylvite          -9.82     -9.16    0.66  KCl
  Syngenite       -15.99    -23.59   -7.60  K2Ca(SO4)2:H2O
  Tachyhydrite    -55.88    -38.73   17.14  Mg2CaCl6:12H2O
  Thenardite      -12.53    -12.86   -0.33  Na2SO4
  Thermonatrite   -16.76     -5.56   11.20  Na2CO3:H2O
  Trona-K         -26.89    -15.30   11.59  K2NaH(CO3)2:2H2O
  U              -151.65     73.04  224.69  U
  U(g)           -242.15     73.04  315.19  U
  UCl2(g)        -167.37     27.30  194.66  UCl2
  UCl6           -125.23    -64.19   61.04  UCl6
  UCl6(g)        -131.84    -64.19   67.65  UCl6
  UO(g)          -174.92     48.99  223.92  UO
  UO2(g)         -108.27     24.94  133.21  UO2
  UO2(OH)2(beta)   -4.59      0.89    5.48  UO2(OH)2
  UO2Cl2          -33.93    -20.80   13.12  UO2Cl2
  UO2Cl2(g)       -72.27    -20.80   51.47  UO2Cl2
  UO2Cl2:3H2O     -26.84    -20.80    6.04  UO2Cl2:3H2O
  UO2Cl2:H2O      -29.81    -20.80    9.01  UO2Cl2:H2O
  UO2ClOH:2H2O    -12.58     -9.96    2.62  UO2ClOH:2H2O
  UO2CO3           -5.76     -9.71   -3.95  UO2CO3
  UO2SO4          -19.71    -17.01    2.70  UO2SO4
  UO2SO4:2.5H2O   -15.84    -17.01   -1.17  UO2SO4:2.5H2O
  UO2SO4:3.5H2O   -15.78    -17.01   -1.23  UO2SO4:3.5H2O
  UO2SO4:3H2O     -15.92    -17.01   -1.09  UO2SO4:3H2O
  UO2SO4:H2O      -11.31    -17.01   -5.70  UO2SO4:H2O
  UO3(alpha)       -8.56      0.89    9.45  UO3
  UO3(beta)        -8.20      0.89    9.10  UO3
  UO3(g)          -74.75      0.89   75.64  UO3
  UO3(gamma)       -7.57      0.89    8.46  UO3
  UO3:.9H2O(alpha)  -4.66      0.89    5.55  UO3:.9H2O
  UO3:2H2O         -4.42      0.89    5.31  UO3:2H2O

**For a gas, SI = log10(fugacity). Fugacity = pressure * phi / 1 atm.
  For ideal gases, phi = 1.

Initial solution 2.	Ash_alkalinity_pulse_upper_bound

WARNING: Equivalent wt for alkalinity should be Ca.5(CO3).5. Using 50.0355 g/eq.
-----------------------------Solution composition------------------------------

	Elements           Molality       Moles

	Alkalinity        9.994e-04   9.994e-04
	Ca                4.991e-04   4.991e-04
	Cl                8.463e-05   8.463e-05
	K                 7.674e-05   7.674e-05
	Mg                1.234e-04   1.234e-04
	Na                2.175e-04   2.175e-04
	Pb                4.827e-10   4.827e-10
	Ra                5.973e-16   5.973e-16
	S(6)              5.207e-05   5.207e-05
	U(6)              4.202e-10   4.202e-10

----------------------------Description of solution----------------------------

                                       pH  =   8.200    
                                       pe  =   4.000    
                        Activity of water  =   1.000
                 Ionic strength (mol/kgw)  =   2.010e-03
                       Mass of water (kg)  =   1.000e+00
                    Total carbon (mol/kg)  =   1.007e-03
                       Total CO2 (mol/kg)  =   1.007e-03
                         Temperature (°C)  =  10.00
                  Electrical balance (eq)  =   3.511e-04
 Percent error, 100*(Cat-|An|)/(Cat+|An|)  =  13.05
                               Iterations  =  12 (16 overall)
                                  Total H  = 1.110516e+02
                                  Total O  = 5.552854e+01

----------------------------Distribution of species----------------------------

                                               Log       Log       Log    mole V
   Species          Molality    Activity  Molality  Activity     Gamma   cmł/mol

   OH-             4.819e-07   4.588e-07    -6.317    -6.338    -0.021     (0)  
   H+              6.603e-09   6.310e-09    -8.180    -8.200    -0.020      0.00
   H2O             5.553e+01   1.000e+00     1.744    -0.000     0.000     18.02
C(4)          1.007e-03
   HCO3-           9.744e-04   9.281e-04    -3.011    -3.032    -0.021     (0)  
   CO2             1.726e-05   1.727e-05    -4.763    -4.763     0.000     (0)  
   CO3-2           5.707e-06   4.701e-06    -5.244    -5.328    -0.084     (0)  
   CaHCO3+         4.614e-06   4.395e-06    -5.336    -5.357    -0.021     (0)  
   CaCO3           3.071e-06   3.071e-06    -5.513    -5.513     0.000     (0)  
   MgHCO3+         1.112e-06   1.059e-06    -5.954    -5.975    -0.021     (0)  
   MgCO3           4.024e-07   4.024e-07    -6.395    -6.395     0.000     (0)  
   NaHCO3          3.669e-07   3.669e-07    -6.435    -6.435     0.000     (0)  
   NaCO3-          5.185e-09   4.938e-09    -8.285    -8.306    -0.021     (0)  
   PbCO3           4.064e-10   4.064e-10    -9.391    -9.391     0.000     (0)  
   UO2(CO3)3-4     1.744e-10   7.983e-11    -9.758   -10.098    -0.339     (0)  
   UO2(CO3)2-2     1.329e-10   1.094e-10    -9.876    -9.961    -0.085     (0)  
   Pb(CO3)2-2      2.252e-12   1.852e-12   -11.647   -11.732    -0.085     (0)  
   UO2CO3          1.648e-12   1.648e-12   -11.783   -11.783     0.000     (0)  
   (UO2)2CO3(OH)3-   2.108e-14   2.007e-14   -13.676   -13.697    -0.021     (0)  
   (UO2)3(CO3)6-6   1.426e-25   2.457e-26   -24.846   -25.610    -0.764     (0)  
   (UO2)3(OH)5CO2+   6.401e-29   6.097e-29   -28.194   -28.215    -0.021     (0)  
   (UO2)3O(OH)2(HCO3)+   5.161e-29   4.916e-29   -28.287   -28.308    -0.021     (0)  
   (UO2)11(CO3)6(OH)12-2   0.000e+00   0.000e+00   -73.576   -73.660    -0.085     (0)  
Ca            4.991e-04
   Ca+2            4.893e-04   4.046e-04    -3.310    -3.393    -0.082     (0)  
   CaHCO3+         4.614e-06   4.395e-06    -5.336    -5.357    -0.021     (0)  
   CaCO3           3.071e-06   3.071e-06    -5.513    -5.513     0.000     (0)  
   CaSO4           2.079e-06   2.079e-06    -5.682    -5.682     0.000     (0)  
   CaOH+           9.510e-09   9.058e-09    -8.022    -8.043    -0.021     (0)  
   CaCl+           7.021e-09   6.688e-09    -8.154    -8.175    -0.021     (0)  
   CaCl2           7.505e-13   7.505e-13   -12.125   -12.125     0.000     (0)  
Cl(-1)        8.463e-05
   Cl-             8.461e-05   8.054e-05    -4.073    -4.094    -0.021     (0)  
   CaCl+           7.021e-09   6.688e-09    -8.154    -8.175    -0.021     (0)  
   MgCl+           6.874e-09   6.547e-09    -8.163    -8.184    -0.021     (0)  
   NaCl            2.609e-09   2.609e-09    -8.584    -8.584     0.000     (0)  
   KCl             1.437e-10   1.437e-10    -9.843    -9.843     0.000     (0)  
   CaCl2           7.505e-13   7.505e-13   -12.125   -12.125     0.000     (0)  
   HCl             1.099e-13   1.099e-13   -12.959   -12.959     0.000     (0)  
   PbCl+           3.435e-14   3.272e-14   -13.464   -13.485    -0.021     (0)  
   PbCl2           9.236e-18   9.236e-18   -17.035   -17.035     0.000     (0)  
   UO2Cl+          8.051e-21   7.669e-21   -20.094   -20.115    -0.021     (0)  
   PbCl3-          3.937e-22   3.750e-22   -21.405   -21.426    -0.021     (0)  
   PbCl4-2         3.340e-26   2.748e-26   -25.476   -25.561    -0.085     (0)  
   UO2Cl2          2.736e-26   2.736e-26   -25.563   -25.563     0.000     (0)  
Cl(1)         0.000e+00
   ClO-            0.000e+00   0.000e+00   -40.632   -40.653    -0.021     (0)  
   HClO            0.000e+00   0.000e+00   -41.284   -41.284     0.000     (0)  
Cl(3)         0.000e+00
   ClO2-           0.000e+00   0.000e+00   -69.909   -69.930    -0.021     (0)  
   HClO2           0.000e+00   0.000e+00   -74.960   -74.960     0.000     (0)  
Cl(5)         0.000e+00
   ClO3-           0.000e+00   0.000e+00   -84.603   -84.624    -0.021     (0)  
   PbClO3+         0.000e+00   0.000e+00   -95.634   -95.655    -0.021     (0)  
   UO2ClO3+        0.000e+00   0.000e+00  -100.186  -100.207    -0.021     (0)  
   Pb(ClO3)2       0.000e+00   0.000e+00  -180.571  -180.571     0.000     (0)  
Cl(7)         0.000e+00
   ClO4-           0.000e+00   0.000e+00  -103.714  -103.736    -0.021     (0)  
H(0)          3.060e-28
   H2              1.530e-28   1.531e-28   -27.815   -27.815     0.000     (0)  
K             7.674e-05
   K+              7.671e-05   7.302e-05    -4.115    -4.137    -0.021     (0)  
   KSO4-           2.359e-08   2.247e-08    -7.627    -7.648    -0.021     (0)  
   KCl             1.437e-10   1.437e-10    -9.843    -9.843     0.000     (0)  
   KOH             4.013e-11   4.013e-11   -10.397   -10.397     0.000     (0)  
   KHSO4           7.122e-17   7.122e-17   -16.147   -16.147     0.000     (0)  
Mg            1.234e-04
   Mg+2            1.212e-04   1.007e-04    -3.917    -3.997    -0.080     (0)  
   MgHCO3+         1.112e-06   1.059e-06    -5.954    -5.975    -0.021     (0)  
   MgSO4           7.319e-07   7.319e-07    -6.136    -6.136     0.000     (0)  
   MgCO3           4.024e-07   4.024e-07    -6.395    -6.395     0.000     (0)  
   MgCl+           6.874e-09   6.547e-09    -8.163    -8.184    -0.021     (0)  
   Mg4(OH)4+4      2.483e-23   1.155e-23   -22.605   -22.938    -0.332     (0)  
Na            2.175e-04
   Na+             2.171e-04   2.068e-04    -3.663    -3.685    -0.021     (0)  
   NaHCO3          3.669e-07   3.669e-07    -6.435    -6.435     0.000     (0)  
   NaSO4-          5.802e-08   5.526e-08    -7.236    -7.258    -0.021     (0)  
   NaCO3-          5.185e-09   4.938e-09    -8.285    -8.306    -0.021     (0)  
   NaCl            2.609e-09   2.609e-09    -8.584    -8.584     0.000     (0)  
   NaOH            1.705e-11   1.705e-11   -10.768   -10.768     0.000     (0)  
O(0)          0.000e+00
   O2              0.000e+00   0.000e+00   -41.659   -41.659     0.000     (0)  
Pb(2)         4.827e-10
   PbCO3           4.064e-10   4.064e-10    -9.391    -9.391     0.000     (0)  
   PbOH+           5.202e-11   4.955e-11   -10.284   -10.305    -0.021     (0)  
   Pb+2            1.881e-11   1.549e-11   -10.726   -10.810    -0.084     (0)  
   Pb(OH)2         3.162e-12   3.162e-12   -11.500   -11.500     0.000     (0)  
   Pb(CO3)2-2      2.252e-12   1.852e-12   -11.647   -11.732    -0.085     (0)  
   PbCl+           3.435e-14   3.272e-14   -13.464   -13.485    -0.021     (0)  
   Pb(OH)3-        5.321e-15   5.069e-15   -14.274   -14.295    -0.021     (0)  
   PbCl2           9.236e-18   9.236e-18   -17.035   -17.035     0.000     (0)  
   Pb2OH+3         2.363e-20   1.532e-20   -19.627   -19.815    -0.188     (0)  
   PbCl3-          3.937e-22   3.750e-22   -21.405   -21.426    -0.021     (0)  
   Pb3(OH)4+2      3.752e-24   3.091e-24   -23.426   -23.510    -0.084     (0)  
   PbCl4-2         3.340e-26   2.748e-26   -25.476   -25.561    -0.085     (0)  
   Pb4(OH)4+4      1.030e-31   4.788e-32   -30.987   -31.320    -0.332     (0)  
   Pb6(OH)8+4      0.000e+00   0.000e+00   -42.487   -42.820    -0.332     (0)  
   PbClO3+         0.000e+00   0.000e+00   -95.634   -95.655    -0.021     (0)  
   Pb(ClO3)2       0.000e+00   0.000e+00  -180.571  -180.571     0.000     (0)  
Pb(4)         0.000e+00
   Pb+4            0.000e+00   0.000e+00   -61.887   -62.220    -0.332     (0)  
Ra            5.973e-16
   Ra+2            5.973e-16   4.927e-16   -15.224   -15.307    -0.084     (0)  
S(6)          5.207e-05
   SO4-2           4.917e-05   4.045e-05    -4.308    -4.393    -0.085     (0)  
   CaSO4           2.079e-06   2.079e-06    -5.682    -5.682     0.000     (0)  
   MgSO4           7.319e-07   7.319e-07    -6.136    -6.136     0.000     (0)  
   NaSO4-          5.802e-08   5.526e-08    -7.236    -7.258    -0.021     (0)  
   KSO4-           2.359e-08   2.247e-08    -7.627    -7.648    -0.021     (0)  
   HSO4-           1.778e-11   1.693e-11   -10.750   -10.771    -0.021     (0)  
   KHSO4           7.122e-17   7.122e-17   -16.147   -16.147     0.000     (0)  
   UO2SO4          2.505e-18   2.505e-18   -17.601   -17.601     0.000     (0)  
   UO2(SO4)2-2     7.485e-22   6.158e-22   -21.126   -21.211    -0.085     (0)  
   H2SO4           1.535e-22   1.535e-22   -21.814   -21.814     0.000     (0)  
U(6)          4.202e-10
   UO2(CO3)3-4     1.744e-10   7.983e-11    -9.758   -10.098    -0.339     (0)  
   UO2(CO3)2-2     1.329e-10   1.094e-10    -9.876    -9.961    -0.085     (0)  
   UO2(OH)2        9.212e-11   9.212e-11   -10.036   -10.036     0.000     (0)  
   UO2(OH)3-       1.898e-11   1.808e-11   -10.722   -10.743    -0.021     (0)  
   UO2CO3          1.648e-12   1.648e-12   -11.783   -11.783     0.000     (0)  
   UO2OH+          3.073e-14   2.927e-14   -13.512   -13.534    -0.021     (0)  
   (UO2)2CO3(OH)3-   2.108e-14   2.007e-14   -13.676   -13.697    -0.021     (0)  
   UO2+2           9.187e-17   7.568e-17   -16.037   -16.121    -0.084     (0)  
   UO2(OH)4-2      5.428e-17   4.465e-17   -16.265   -16.350    -0.085     (0)  
   UO2SO4          2.505e-18   2.505e-18   -17.601   -17.601     0.000     (0)  
   UO2Cl+          8.051e-21   7.669e-21   -20.094   -20.115    -0.021     (0)  
   UO2(SO4)2-2     7.485e-22   6.158e-22   -21.126   -21.211    -0.085     (0)  
   (UO2)2(OH)2+2   1.761e-22   1.450e-22   -21.754   -21.839    -0.084     (0)  
   (UO2)3(OH)7-    1.017e-22   9.684e-23   -21.993   -22.014    -0.021     (0)  
   (UO2)3(OH)5+    1.360e-24   1.296e-24   -23.866   -23.888    -0.021     (0)  
   (UO2)3(CO3)6-6   1.426e-25   2.457e-26   -24.846   -25.610    -0.764     (0)  
   UO2Cl2          2.736e-26   2.736e-26   -25.563   -25.563     0.000     (0)  
   (UO2)2OH+3      2.748e-27   1.781e-27   -26.561   -26.749    -0.188     (0)  
   (UO2)3(OH)4+2   3.909e-28   3.220e-28   -27.408   -27.492    -0.084     (0)  
   (UO2)3(OH)5CO2+   6.401e-29   6.097e-29   -28.194   -28.215    -0.021     (0)  
   (UO2)3O(OH)2(HCO3)+   5.161e-29   4.916e-29   -28.287   -28.308    -0.021     (0)  
   (UO2)4(OH)7+    9.686e-30   9.226e-30   -29.014   -29.035    -0.021     (0)  
   (UO2)11(CO3)6(OH)12-2   0.000e+00   0.000e+00   -73.576   -73.660    -0.085     (0)  
   UO2ClO3+        0.000e+00   0.000e+00  -100.186  -100.207    -0.021     (0)  

------------------------------Saturation indices-------------------------------

  Phase               SI** log IAP   log K(283 K,   1 atm)

  Anglesite        -7.19    -15.20   -8.02  PbSO4
  Anhydrite        -3.60     -7.79   -4.18  CaSO4
  Antarcticite    -15.67    -11.58    4.09  CaCl2:6H2O
  Aphthitalite    -20.99    -24.88   -3.89  NaK3(SO4)2
  Aragonite        -0.44      1.77    2.21  CaCO3
  Arcanite        -10.60    -12.67   -2.07  K2SO4
  Artinite         -7.28     13.57   20.85  Mg2CO3(OH)2:3H2O
  Bassanite        -4.25     -7.79   -3.53  CaSO4:0.5H2O
  Bischofite      -16.58    -12.18    4.39  MgCl2:6H2O
  Bloedite        -17.67    -20.15   -2.48  Na2Mg(SO4)2:4H2O
  Brucite          -4.92     12.40   17.32  Mg(OH)2
  Burkeite        -35.21    -25.73    9.49  Na6CO3(SO4)2
  C               -37.35     30.43   67.77  C
  C(g)           -161.60     30.43  192.03  C
  Ca             -113.63     33.84  147.47  Ca
  Ca(g)          -140.52     33.84  174.35  Ca
  Ca2Cl2(OH)2:H2O -24.86      1.43   26.29  Ca2Cl2(OH)2:H2O
  Ca4Cl2(OH)6:13H2O -40.89     27.44   68.33  Ca4Cl2(OH)6:13H2O
  Calcite          -0.29      1.77    2.07  CaCO3
  Carnallite      -24.69    -20.42    4.27  KMgCl3:6H2O
  CaSO4:0.5H2O(beta)  -4.44     -7.79   -3.34  CaSO4:0.5H2O
  CaUO4            -3.87     13.29   17.16  CaUO4
  Cerussite        -2.28     -5.64   -3.37  PbCO3
  Chloromagnesite -35.47    -12.18   23.29  MgCl2
  Cl2(g)          -48.90    -45.42    3.48  Cl2
  CO2(g)           -3.50    -11.23   -7.73  CO2
  Cotunnite       -13.88    -19.00   -5.12  PbCl2
  Dolomite         -0.09      2.95    3.04  CaMg(CO3)2
  Dolomite-dis     -1.74      2.95    4.69  CaMg(CO3)2
  Dolomite-ord     -0.08      2.95    3.03  CaMg(CO3)2
  Epsomite         -6.43     -8.39   -1.96  MgSO4:7H2O
  Gaylussite      -11.59     -0.43   11.16  CaNa2(CO3)2:5H2O
  Glauberite      -14.08    -19.55   -5.47  Na2Ca(SO4)2
  Gypsum           -3.27     -7.79   -4.51  CaSO4:2H2O
  H2(g)           -24.76    -27.82   -3.05  H2
  H2O(g)           -2.00     -0.00    2.00  H2O
  Halite           -9.31     -7.78    1.53  NaCl
  HCl(g)          -19.28    -12.29    6.99  HCl
  Hexahydrite      -6.66     -8.39   -1.73  MgSO4:6H2O
  Huntite          -6.53      5.29   11.82  CaMg3(CO3)4
  Hydrocerussite   -7.54     -5.69    1.85  Pb3(CO3)2(OH)2
  Hydromagnesite  -16.48     17.09   33.56  Mg5(CO3)4(OH)2:4H2O
  Hydrophilite    -24.08    -11.58   12.50  CaCl2
  Ice              -0.08     -0.00    0.08  H2O
  K               -60.14     14.48   74.61  K
  K(g)            -71.56     14.48   86.04  K
  K2CO3:1.5H2O    -16.48     -3.11   13.38  K2CO3:1.5H2O
  K2O             -79.87      8.13   88.00  K2O
  K2UO4           -27.10      8.41   35.50  K2UO4
  K3H(SO4)2       -25.77    -29.40   -3.62  K3H(SO4)2
  K8H4(CO3)6:3H2O -62.60    -34.89   27.71  K8H4(CO3)6:3H2O
  Kainite         -16.31    -16.62   -0.31  KMgClSO4:3H2O
  Kalicinite       -7.45     -7.17    0.28  KHCO3
  Kieserite        -8.12     -8.39   -0.27  MgSO4:H2O
  KMgCl3          -42.87    -20.42   22.45  KMgCl3
  KMgCl3:2H2O     -35.07    -20.42   14.66  KMgCl3:2H2O
  KNaCO3:6H2O     -12.91     -2.65   10.26  KNaCO3:6H2O
  Lanarkite        -9.31     -9.61   -0.30  Pb2(SO4)O
  Lansfordite      -3.67      1.17    4.84  MgCO3:5H2O
  Leonite         -16.94    -21.06   -4.11  K2Mg(SO4)2:4H2O
  Lime            -21.36     13.01   34.37  CaO
  Litharge         -7.66      5.59   13.25  PbO
  Magnesite        -1.52      1.17    2.69  MgCO3
  Massicot         -7.86      5.59   13.45  PbO
  Mercallite      -15.29    -16.73   -1.44  KHSO4
  Mg              -96.21     33.23  129.44  Mg
  Mg(g)          -117.29     33.23  150.52  Mg
  Mg1.25SO4(OH)0.5:0.5H2O -11.39     -5.29    6.10  Mg1.25SO4(OH)0.5:0.5H2O
  Mg1.5SO4(OH)    -12.57     -2.19   10.38  Mg1.5SO4(OH)
  MgCl2:2H2O      -25.78    -12.18   13.59  MgCl2:2H2O
  MgCl2:4H2O      -19.91    -12.18    7.73  MgCl2:4H2O
  MgCl2:H2O       -29.37    -12.18   17.18  MgCl2:H2O
  MgOHCl          -16.89      0.11   17.00  MgOHCl
  MgSO4           -14.06     -8.39    5.67  MgSO4
  MgUO4           -12.17     12.68   24.85  MgUO4
  Minium          -34.50    -18.24   16.26  Pb3O4
  Mirabilite       -9.91    -11.76   -1.85  Na2SO4:10H2O
  Misenite       -101.97   -113.04  -11.08  K8H6(SO4)7
  Monohydrocalcite  -1.10      1.77    2.87  CaCO3:H2O
  Na              -55.97     14.93   70.90  Na
  Na(g)           -70.45     14.93   85.39  Na
  Na2CO3          -13.74     -2.20   11.54  Na2CO3
  Na2CO3:7H2O     -11.92     -2.20    9.72  Na2CO3:7H2O
  Na2O            -61.66      9.03   70.69  Na2O
  Na2U2O7         -14.61      9.59   24.20  Na2U2O7
  Na2UO4(alpha)   -22.33      9.31   31.64  Na2UO4
  Na3H(SO4)2      -27.15    -28.04   -0.89  Na3H(SO4)2
  Na4Ca(SO4)3:2H2O -25.42    -31.31   -5.89  Na4Ca(SO4)3:2H2O
  Na4UO2(CO3)3    -19.40    -15.36    4.04  Na4UO2(CO3)3
  Nahcolite        -6.43     -6.72   -0.28  NaHCO3
  Natron          -11.35     -2.20    9.15  Na2CO3:10H2O
  Nesquehonite     -4.63      1.17    5.80  MgCO3:3H2O
  O2(g)           -38.89    -41.66   -2.77  O2
  Oxychloride-Mg  -13.32     12.51   25.83  Mg2Cl(OH)3:4H2O
  Paralaurionite   -6.82     -6.70    0.11  PbClOH
  Pb              -23.34     26.42   49.76  Pb
  Pb(g)           -53.58     26.42   80.00  Pb
  Pb2Cl2CO3       -15.02    -24.64   -9.62  Pb2Cl2CO3
  Pb3SO6          -15.32     -4.02   11.29  Pb3SO6
  Pb4Cl2(OH)6     -19.51     -2.23   17.28  Pb4Cl2(OH)6
  Pb4SO7          -21.39      1.57   22.96  Pb4SO7
  PbCO3.PbO       -10.22     -0.05   10.17  PbCO3.PbO
  Pentahydrite     -7.00     -8.39   -1.39  MgSO4:5H2O
  Periclase       -10.32     12.40   22.72  MgO
  Phosgenite      -14.50    -24.64  -10.14  Pb2(CO3)Cl2
  Picromerite     -16.62    -21.06   -4.44  K2Mg(SO4)2:6H2O
  Pirssonite      -11.75     -0.43   11.32  Na2Ca(CO3)2:2H2O
  Plattnerite     -21.45    -29.42   -7.97  PbO2
  Polyhalite      -22.32    -36.63  -14.31  K2MgCa2(SO4)4:2H2O
  Portlandite     -10.74     13.01   23.75  Ca(OH)2
  Ra             -126.93     21.92  148.85  Ra
  RaCl2:2H2O      -22.41    -23.50   -1.09  RaCl2:2H2O
  RaSO4            -8.84    -19.70  -10.86  RaSO4
  Rutherfordine    -7.01    -10.95   -3.94  UO2CO3
  Schoepite        -5.03      0.28    5.31  UO3:2H2O
  Schoepite-dehy(.393)  -7.10      0.28    7.38  UO3:.393H2O
  Schoepite-dehy(.648)  -6.55      0.28    6.82  UO3:.648H2O
  Schoepite-dehy(.85)  -5.35      0.28    5.63  UO3:.85H2O
  Schoepite-dehy(.9)  -5.26      0.28    5.54  UO3:.9H2O
  Schoepite-dehy(1.0)  -5.37      0.28    5.65  UO3:H2O
  Starkeyite       -7.39     -8.39   -1.00  MgSO4:4H2O
  Sylvite          -8.89     -8.23    0.66  KCl
  Syngenite       -12.85    -20.45   -7.60  K2Ca(SO4)2:H2O
  Tachyhydrite    -53.09    -35.95   17.14  Mg2CaCl6:12H2O
  Thenardite      -11.43    -11.76   -0.33  Na2SO4
  Thermonatrite   -13.40     -2.20   11.20  Na2CO3:H2O
  Trona-K         -21.41     -9.82   11.59  K2NaH(CO3)2:2H2O
  U              -161.92     62.77  224.69  U
  U(g)           -252.42     62.77  315.19  U
  UCl2(g)        -177.31     17.35  194.66  UCl2
  UCl6           -134.52    -73.49   61.04  UCl6
  UCl6(g)        -141.13    -73.49   67.65  UCl6
  UO(g)          -181.98     41.94  223.92  UO
  UO2(g)         -112.10     21.11  133.21  UO2
  UO2(OH)2(beta)   -5.20      0.28    5.48  UO2(OH)2
  UO2Cl2          -37.43    -24.31   13.12  UO2Cl2
  UO2Cl2(g)       -75.78    -24.31   51.47  UO2Cl2
  UO2Cl2:3H2O     -30.35    -24.31    6.04  UO2Cl2:3H2O
  UO2Cl2:H2O      -33.32    -24.31    9.01  UO2Cl2:H2O
  UO2ClOH:2H2O    -14.64    -12.02    2.62  UO2ClOH:2H2O
  UO2CO3           -7.00    -10.95   -3.95  UO2CO3
  UO2SO4          -23.21    -20.51    2.70  UO2SO4
  UO2SO4:2.5H2O   -19.35    -20.51   -1.17  UO2SO4:2.5H2O
  UO2SO4:3.5H2O   -19.28    -20.51   -1.23  UO2SO4:3.5H2O
  UO2SO4:3H2O     -19.42    -20.51   -1.09  UO2SO4:3H2O
  UO2SO4:H2O      -14.81    -20.51   -5.70  UO2SO4:H2O
  UO3(alpha)       -9.17      0.28    9.45  UO3
  UO3(beta)        -8.82      0.28    9.10  UO3
  UO3(g)          -75.36      0.28   75.64  UO3
  UO3(gamma)       -8.18      0.28    8.46  UO3
  UO3:.9H2O(alpha)  -5.27      0.28    5.55  UO3:.9H2O
  UO3:2H2O         -5.03      0.28    5.31  UO3:2H2O

**For a gas, SI = log10(fugacity). Fugacity = pressure * phi / 1 atm.
  For ideal gases, phi = 1.

------------------
End of simulation.
------------------

------------------------------------
Reading input data for simulation 2.
------------------------------------

----------------------------------
End of Run after 0.621816 Seconds.
----------------------------------

