   Input file: u_ra_so4_co3_screening.phr
  Output file: u_ra_so4_co3_screening.out
Database file: /Users/aibao/.local/phreeqc/phreeqc-3.5.0-14000/database/llnl.dat

------------------
Reading data base.
------------------

	LLNL_AQUEOUS_MODEL_PARAMETERS
	NAMED_EXPRESSIONS
	SOLUTION_MASTER_SPECIES
	SOLUTION_SPECIES
	PHASES
	EXCHANGE_MASTER_SPECIES
	EXCHANGE_SPECIES
	SURFACE_MASTER_SPECIES
	SURFACE_SPECIES
	RATES
	END
------------------------------------
Reading input data for simulation 1.
------------------------------------

	TITLE U-Ra-SO4-CO3 groundwater screening package
	SELECTED_OUTPUT 1
	  file selected_output.tsv
	  reset false
	  simulation true
	  solution true
	  state true
	  ph true
	  pe true
	  temperature true
	  alkalinity true
	  ionic_strength true
	  charge_balance true
	  percent_error true
	  water true
	  totals U Ra Ba Sr Ca Mg Na K Cl S C Fe Mn
	  saturation_indices Calcite Dolomite Barite Celestite Gypsum Uraninite Coffinite Goethite Manganite Pyrolusite RaSO4
	  molalities UO2+2 UO2CO3 UO2(CO3)2-2 UO2(CO3)3-4 Ra+2 Ba+2 Sr+2 SO4-2 HCO3-
	END
-----
TITLE
-----

 U-Ra-SO4-CO3 groundwater screening package

------------------
End of simulation.
------------------

------------------------------------
Reading input data for simulation 2.
------------------------------------

	SOLUTION 1 OX-CARB-01
	  temp 10
	  units mg/L
	  pH 7.85
	  pe 8
	  Alkalinity 245 as CaCO3
	  Ca 72
	  Mg 24
	  Na 58
	  K 3.2
	  Cl 34
	  S(6) 42 as SO4
	  Ba 0.025
	  Sr 0.42
	  Fe 0.015
	  Mn 0.008
	  U 0.085
	  Ra 2.18722797128e-09
	END
-------------------------------------------
Beginning of initial solution calculations.
-------------------------------------------

Initial solution 1.	OX-CARB-01

WARNING: Equivalent wt for alkalinity should be Ca.5(CO3).5. Using 50.0355 g/eq.
-----------------------------Solution composition------------------------------

	Elements           Molality       Moles

	Alkalinity        4.899e-03   4.899e-03
	Ba                1.821e-07   1.821e-07
	Ca                1.797e-03   1.797e-03
	Cl                9.595e-04   9.595e-04
	Fe                2.687e-07   2.687e-07
	K                 8.188e-05   8.188e-05
	Mg                9.879e-04   9.879e-04
	Mn                1.457e-07   1.457e-07
	Na                2.524e-03   2.524e-03
	Ra                9.682e-15   9.682e-15
	S(6)              4.375e-04   4.375e-04
	Sr                4.796e-06   4.796e-06
	U                 3.573e-07   3.573e-07

----------------------------Description of solution----------------------------

                                       pH  =   7.850    
                                       pe  =   8.000    
                        Activity of water  =   1.000
                 Ionic strength (mol/kgw)  =   1.016e-02
                       Mass of water (kg)  =   1.000e+00
                    Total carbon (mol/kg)  =   5.036e-03
                       Total CO2 (mol/kg)  =   5.036e-03
                         Temperature (°C)  =  10.00
                  Electrical balance (eq)  =   1.454e-03
 Percent error, 100*(Cat-|An|)/(Cat+|An|)  =  10.15
                               Iterations  =   9
                                  Total H  = 1.110555e+02
                                  Total O  = 5.554201e+01

----------------------------Distribution of species----------------------------

                                               Log       Log       Log    mole V
   Species          Molality    Activity  Molality  Activity     Gamma   cmł/mol

   OH-             2.272e-07   2.049e-07    -6.644    -6.688    -0.045     (0)  
   H+              1.544e-08   1.413e-08    -7.811    -7.850    -0.039      0.00
   H2O             5.553e+01   9.998e-01     1.744    -0.000     0.000     18.02
Ba            1.821e-07
   Ba+2            1.817e-07   1.220e-07    -6.741    -6.914    -0.173     (0)  
   BaCO3           3.909e-10   3.909e-10    -9.408    -9.408     0.000     (0)  
   BaCl+           3.095e-11   2.795e-11   -10.509   -10.554    -0.044     (0)  
   BaOH+           3.240e-13   2.926e-13   -12.489   -12.534    -0.044     (0)  
C(4)          5.036e-03
   HCO3-           4.706e-03   4.251e-03    -2.327    -2.372    -0.044     (0)  
   CO2             1.766e-04   1.770e-04    -3.753    -3.752     0.001     (0)  
   CaHCO3+         6.285e-05   5.676e-05    -4.202    -4.246    -0.044     (0)  
   MgHCO3+         3.399e-05   3.070e-05    -4.469    -4.513    -0.044     (0)  
   NaHCO3          1.836e-05   1.836e-05    -4.736    -4.736     0.000     (0)  
   CaCO3           1.772e-05   1.772e-05    -4.752    -4.752     0.000     (0)  
   CO3-2           1.441e-05   9.617e-06    -4.841    -5.017    -0.175     (0)  
   MgCO3           5.209e-06   5.209e-06    -5.283    -5.283     0.000     (0)  
   UO2(CO3)3-4     2.972e-07   5.751e-08    -6.527    -7.240    -0.713     (0)  
   NaCO3-          1.222e-07   1.104e-07    -6.913    -6.957    -0.044     (0)  
   UO2(CO3)2-2     5.803e-08   3.851e-08    -7.236    -7.414    -0.178     (0)  
   MnCO3           3.357e-08   3.357e-08    -7.474    -7.474     0.000     (0)  
   SrCO3           1.589e-08   1.589e-08    -7.799    -7.799     0.000     (0)  
   MnHCO3+         2.574e-09   2.325e-09    -8.589    -8.634    -0.044     (0)  
   BaCO3           3.909e-10   3.909e-10    -9.408    -9.408     0.000     (0)  
   UO2CO3          2.837e-10   2.837e-10    -9.547    -9.547     0.000     (0)  
   (UO2)2CO3(OH)3-   2.868e-11   2.590e-11   -10.542   -10.587    -0.044     (0)  
   FeHCO3+         3.069e-13   2.772e-13   -12.513   -12.557    -0.044     (0)  
   FeCO3+          1.837e-13   1.659e-13   -12.736   -12.780    -0.044     (0)  
   FeCO3           9.417e-14   9.417e-14   -13.026   -13.026     0.000     (0)  
   (UO2)3(CO3)6-6   4.325e-17   1.073e-18   -16.364   -17.969    -1.605     (0)  
   (UO2)3(OH)5CO2+   7.329e-24   6.619e-24   -23.135   -23.179    -0.044     (0)  
   (UO2)3O(OH)2(HCO3)+   5.910e-24   5.338e-24   -23.228   -23.273    -0.044     (0)  
   UO2(CO3)3-5     1.230e-27   9.445e-29   -26.910   -28.025    -1.115     (0)  
   U(CO3)4-4       6.491e-36   1.256e-36   -35.188   -35.901    -0.713     (0)  
   U(CO3)5-6       0.000e+00   0.000e+00   -40.771   -42.377    -1.605     (0)  
   (UO2)11(CO3)6(OH)12-2   0.000e+00   0.000e+00   -54.643   -54.821    -0.178     (0)  
Ca            1.797e-03
   Ca+2            1.681e-03   1.141e-03    -2.774    -2.943    -0.168     (0)  
   CaHCO3+         6.285e-05   5.676e-05    -4.202    -4.246    -0.044     (0)  
   CaSO4           3.555e-05   3.555e-05    -4.449    -4.449     0.000     (0)  
   CaCO3           1.772e-05   1.772e-05    -4.752    -4.752     0.000     (0)  
   CaCl+           2.238e-07   2.021e-07    -6.650    -6.694    -0.044     (0)  
   CaOH+           1.263e-08   1.141e-08    -7.899    -7.943    -0.044     (0)  
   CaCl2           2.430e-10   2.430e-10    -9.614    -9.614     0.000     (0)  
Cl(-1)        9.595e-04
   Cl-             9.585e-04   8.630e-04    -3.018    -3.064    -0.046     (0)  
   MgCl+           4.916e-07   4.440e-07    -6.308    -6.353    -0.044     (0)  
   NaCl            3.055e-07   3.055e-07    -6.515    -6.515     0.000     (0)  
   CaCl+           2.238e-07   2.021e-07    -6.650    -6.694    -0.044     (0)  
   KCl             1.552e-09   1.552e-09    -8.809    -8.809     0.000     (0)  
   SrCl+           1.508e-09   1.362e-09    -8.822    -8.866    -0.044     (0)  
   CaCl2           2.430e-10   2.430e-10    -9.614    -9.614     0.000     (0)  
   MnCl+           1.002e-10   9.052e-11    -9.999   -10.043    -0.044     (0)  
   BaCl+           3.095e-11   2.795e-11   -10.509   -10.554    -0.044     (0)  
   HCl             2.637e-12   2.637e-12   -11.579   -11.579     0.000     (0)  
   FeCl+           8.194e-17   7.401e-17   -16.087   -16.131    -0.044     (0)  
   MnCl3-          2.378e-17   2.148e-17   -16.624   -16.668    -0.044     (0)  
   UO2Cl+          7.656e-18   6.915e-18   -17.116   -17.160    -0.044     (0)  
   FeCl2           3.183e-22   3.183e-22   -21.497   -21.497     0.000     (0)  
   UO2Cl2          2.644e-22   2.644e-22   -21.578   -21.578     0.000     (0)  
   FeCl2+          8.005e-23   7.230e-23   -22.097   -22.141    -0.044     (0)  
   FeCl+2          7.122e-23   4.754e-23   -22.147   -22.323    -0.175     (0)  
   FeCl4-2         1.036e-27   6.879e-28   -26.984   -27.162    -0.178     (0)  
   FeCl4-          7.168e-32   6.474e-32   -31.145   -31.189    -0.044     (0)  
   UCl+3           0.000e+00   0.000e+00   -52.339   -52.728    -0.390     (0)  
Cl(1)         7.748e-33
   ClO-            5.259e-33   4.750e-33   -32.279   -32.323    -0.044     (0)  
   HClO            2.488e-33   2.488e-33   -32.604   -32.604     0.000     (0)  
Cl(3)         0.000e+00
   ClO2-           0.000e+00   0.000e+00   -54.256   -54.300    -0.044     (0)  
   HClO2           0.000e+00   0.000e+00   -58.980   -58.980     0.000     (0)  
Cl(5)         0.000e+00
   ClO3-           0.000e+00   0.000e+00   -61.649   -61.694    -0.045     (0)  
   UO2ClO3+        0.000e+00   0.000e+00   -75.308   -75.353    -0.044     (0)  
Cl(7)         0.000e+00
   ClO4-           0.000e+00   0.000e+00   -73.461   -73.506    -0.045     (0)  
Fe(2)         5.921e-13
   FeHCO3+         3.069e-13   2.772e-13   -12.513   -12.557    -0.044     (0)  
   Fe+2            1.830e-13   1.242e-13   -12.737   -12.906    -0.168     (0)  
   FeCO3           9.417e-14   9.417e-14   -13.026   -13.026     0.000     (0)  
   FeSO4           4.829e-15   4.829e-15   -14.316   -14.316     0.000     (0)  
   FeOH+           3.079e-15   2.781e-15   -14.512   -14.556    -0.044     (0)  
   FeCl+           8.194e-17   7.401e-17   -16.087   -16.131    -0.044     (0)  
   Fe(OH)2         1.564e-18   1.564e-18   -17.806   -17.806     0.000     (0)  
   Fe(OH)3-        4.878e-21   4.406e-21   -20.312   -20.356    -0.044     (0)  
   FeCl2           3.183e-22   3.183e-22   -21.497   -21.497     0.000     (0)  
   FeCl4-2         1.036e-27   6.879e-28   -26.984   -27.162    -0.178     (0)  
   Fe(OH)4-2       4.699e-28   3.118e-28   -27.328   -27.506    -0.178     (0)  
Fe(3)         2.687e-07
   Fe(OH)3         2.552e-07   2.552e-07    -6.593    -6.593     0.000     (0)  
   Fe(OH)2+        8.533e-09   7.707e-09    -8.069    -8.113    -0.044     (0)  
   Fe(OH)4-        5.023e-09   4.537e-09    -8.299    -8.343    -0.044     (0)  
   FeOH+2          4.926e-13   3.288e-13   -12.308   -12.483    -0.175     (0)  
   FeCO3+          1.837e-13   1.659e-13   -12.736   -12.780    -0.044     (0)  
   Fe+3            1.611e-18   7.196e-19   -17.793   -18.143    -0.350     (0)  
   FeSO4+          1.074e-20   9.703e-21   -19.969   -20.013    -0.044     (0)  
   FeCl2+          8.005e-23   7.230e-23   -22.097   -22.141    -0.044     (0)  
   Fe(SO4)2-       7.838e-23   7.080e-23   -22.106   -22.150    -0.044     (0)  
   FeCl+2          7.122e-23   4.754e-23   -22.147   -22.323    -0.175     (0)  
   Fe2(OH)2+4      1.404e-23   2.911e-24   -22.853   -23.536    -0.683     (0)  
   Fe3(OH)4+5      5.301e-29   4.687e-30   -28.276   -29.329    -1.053     (0)  
   FeCl4-          7.168e-32   6.474e-32   -31.145   -31.189    -0.044     (0)  
H(0)          1.531e-35
   H2              7.653e-36   7.673e-36   -35.116   -35.115     0.001     (0)  
K             8.188e-05
   K+              8.173e-05   7.359e-05    -4.088    -4.133    -0.046     (0)  
   KSO4-           1.520e-07   1.373e-07    -6.818    -6.862    -0.044     (0)  
   KCl             1.552e-09   1.552e-09    -8.809    -8.809     0.000     (0)  
   KOH             1.806e-11   1.806e-11   -10.743   -10.743     0.000     (0)  
   KHSO4           9.743e-16   9.743e-16   -15.011   -15.011     0.000     (0)  
Mg            9.879e-04
   Mg+2            9.202e-04   6.374e-04    -3.036    -3.196    -0.159     (0)  
   MgHCO3+         3.399e-05   3.070e-05    -4.469    -4.513    -0.044     (0)  
   MgSO4           2.808e-05   2.808e-05    -4.552    -4.552     0.000     (0)  
   MgCO3           5.209e-06   5.209e-06    -5.283    -5.283     0.000     (0)  
   MgCl+           4.916e-07   4.440e-07    -6.308    -6.353    -0.044     (0)  
   Mg4(OH)4+4      3.555e-21   7.368e-22   -20.449   -21.133    -0.683     (0)  
Mn(2)         1.457e-07
   Mn+2            1.058e-07   7.183e-08    -6.975    -7.144    -0.168     (0)  
   MnCO3           3.357e-08   3.357e-08    -7.474    -7.474     0.000     (0)  
   MnSO4           3.486e-09   3.486e-09    -8.458    -8.458     0.000     (0)  
   MnHCO3+         2.574e-09   2.325e-09    -8.589    -8.634    -0.044     (0)  
   MnOH+           1.447e-10   1.307e-10    -9.840    -9.884    -0.044     (0)  
   MnCl+           1.002e-10   9.052e-11    -9.999   -10.043    -0.044     (0)  
   Mn(OH)2         2.271e-14   2.271e-14   -13.644   -13.644     0.000     (0)  
   Mn2(OH)3+       2.550e-15   2.303e-15   -14.593   -14.638    -0.044     (0)  
   Mn2OH+3         2.468e-17   1.006e-17   -16.608   -16.997    -0.390     (0)  
   MnCl3-          2.378e-17   2.148e-17   -16.624   -16.668    -0.044     (0)  
   Mn(OH)3-        1.669e-18   1.507e-18   -17.778   -17.822    -0.044     (0)  
   Mn(OH)4-2       1.361e-24   9.036e-25   -23.866   -24.044    -0.178     (0)  
Mn(3)         1.454e-25
   Mn+3            1.454e-25   5.925e-26   -24.838   -25.227    -0.390     (0)  
Mn(6)         3.208e-37
   MnO4-2          3.208e-37   2.129e-37   -36.494   -36.672    -0.178     (0)  
Mn(7)         1.429e-39
   MnO4-           1.429e-39   1.289e-39   -38.845   -38.890    -0.045     (0)  
Na            2.524e-03
   Na+             2.501e-03   2.259e-03    -2.602    -2.646    -0.044     (0)  
   NaHCO3          1.836e-05   1.836e-05    -4.736    -4.736     0.000     (0)  
   NaSO4-          4.053e-06   3.661e-06    -5.392    -5.436    -0.044     (0)  
   NaCl            3.055e-07   3.055e-07    -6.515    -6.515     0.000     (0)  
   NaCO3-          1.222e-07   1.104e-07    -6.913    -6.957    -0.044     (0)  
   NaOH            8.322e-11   8.322e-11   -10.080   -10.080     0.000     (0)  
O(0)          1.741e-27
   O2              8.704e-28   8.725e-28   -27.060   -27.059     0.001     (0)  
Ra            9.682e-15
   Ra+2            9.682e-15   6.501e-15   -14.014   -14.187    -0.173     (0)  
S(6)          4.375e-04
   SO4-2           3.695e-04   2.453e-04    -3.432    -3.610    -0.178     (0)  
   CaSO4           3.555e-05   3.555e-05    -4.449    -4.449     0.000     (0)  
   MgSO4           2.808e-05   2.808e-05    -4.552    -4.552     0.000     (0)  
   NaSO4-          4.053e-06   3.661e-06    -5.392    -5.436    -0.044     (0)  
   SrSO4           1.520e-07   1.520e-07    -6.818    -6.818     0.000     (0)  
   KSO4-           1.520e-07   1.373e-07    -6.818    -6.862    -0.044     (0)  
   MnSO4           3.486e-09   3.486e-09    -8.458    -8.458     0.000     (0)  
   HSO4-           2.544e-10   2.298e-10    -9.594    -9.639    -0.044     (0)  
   FeSO4           4.829e-15   4.829e-15   -14.316   -14.316     0.000     (0)  
   UO2SO4          1.278e-15   1.278e-15   -14.894   -14.894     0.000     (0)  
   KHSO4           9.743e-16   9.743e-16   -15.011   -15.011     0.000     (0)  
   UO2(SO4)2-2     2.870e-18   1.905e-18   -17.542   -17.720    -0.178     (0)  
   FeSO4+          1.074e-20   9.703e-21   -19.969   -20.013    -0.044     (0)  
   H2SO4           4.664e-21   4.664e-21   -20.331   -20.331     0.000     (0)  
   Fe(SO4)2-       7.838e-23   7.080e-23   -22.106   -22.150    -0.044     (0)  
   USO4+2          0.000e+00   0.000e+00   -48.536   -48.711    -0.175     (0)  
   U(SO4)2         0.000e+00   0.000e+00   -48.689   -48.689     0.000     (0)  
Sr            4.796e-06
   Sr+2            4.626e-06   3.106e-06    -5.335    -5.508    -0.173     (0)  
   SrSO4           1.520e-07   1.520e-07    -6.818    -6.818     0.000     (0)  
   SrCO3           1.589e-08   1.589e-08    -7.799    -7.799     0.000     (0)  
   SrCl+           1.508e-09   1.362e-09    -8.822    -8.866    -0.044     (0)  
   SrOH+           1.248e-11   1.128e-11   -10.904   -10.948    -0.044     (0)  
U(3)          0.000e+00
   U+3             0.000e+00   0.000e+00   -69.651   -70.041    -0.390     (0)  
U(4)          3.844e-26
   U(OH)4          3.844e-26   3.844e-26   -25.415   -25.415     0.000     (0)  
   U(CO3)4-4       6.491e-36   1.256e-36   -35.188   -35.901    -0.713     (0)  
   U(CO3)5-6       0.000e+00   0.000e+00   -40.771   -42.377    -1.605     (0)  
   UOH+3           0.000e+00   0.000e+00   -44.310   -44.700    -0.390     (0)  
   USO4+2          0.000e+00   0.000e+00   -48.536   -48.711    -0.175     (0)  
   U(SO4)2         0.000e+00   0.000e+00   -48.689   -48.689     0.000     (0)  
   U+4             0.000e+00   0.000e+00   -50.878   -51.561    -0.683     (0)  
   UCl+3           0.000e+00   0.000e+00   -52.339   -52.728    -0.390     (0)  
U(5)          1.615e-21
   UO2+            1.615e-21   1.459e-21   -20.792   -20.836    -0.044     (0)  
   UO2(CO3)3-5     1.230e-27   9.445e-29   -26.910   -28.025    -1.115     (0)  
U(6)          3.573e-07
   UO2(CO3)3-4     2.972e-07   5.751e-08    -6.527    -7.240    -0.713     (0)  
   UO2(CO3)2-2     5.803e-08   3.851e-08    -7.236    -7.414    -0.178     (0)  
   UO2(OH)2        1.546e-09   1.546e-09    -8.811    -8.811     0.000     (0)  
   UO2CO3          2.837e-10   2.837e-10    -9.547    -9.547     0.000     (0)  
   UO2(OH)3-       1.500e-10   1.355e-10    -9.824    -9.868    -0.044     (0)  
   (UO2)2CO3(OH)3-   2.868e-11   2.590e-11   -10.542   -10.587    -0.044     (0)  
   UO2OH+          1.218e-12   1.100e-12   -11.914   -11.959    -0.044     (0)  
   UO2+2           9.539e-15   6.368e-15   -14.020   -14.196    -0.175     (0)  
   UO2SO4          1.278e-15   1.278e-15   -14.894   -14.894     0.000     (0)  
   UO2(OH)4-2      2.252e-16   1.495e-16   -15.647   -15.825    -0.178     (0)  
   (UO2)3(CO3)6-6   4.325e-17   1.073e-18   -16.364   -17.969    -1.605     (0)  
   UO2Cl+          7.656e-18   6.915e-18   -17.116   -17.160    -0.044     (0)  
   UO2(SO4)2-2     2.870e-18   1.905e-18   -17.542   -17.720    -0.178     (0)  
   (UO2)2(OH)2+2   3.068e-19   2.048e-19   -18.513   -18.689    -0.175     (0)  
   (UO2)3(OH)7-    2.264e-19   2.045e-19   -18.645   -18.689    -0.044     (0)  
   (UO2)3(OH)5+    1.519e-20   1.372e-20   -19.819   -19.863    -0.044     (0)  
   UO2Cl2          2.644e-22   2.644e-22   -21.578   -21.578     0.000     (0)  
   (UO2)2OH+3      1.382e-23   5.634e-24   -22.859   -23.249    -0.390     (0)  
   (UO2)3(OH)4+2   1.143e-23   7.634e-24   -22.942   -23.117    -0.175     (0)  
   (UO2)3(OH)5CO2+   7.329e-24   6.619e-24   -23.135   -23.179    -0.044     (0)  
   (UO2)3O(OH)2(HCO3)+   5.910e-24   5.338e-24   -23.228   -23.273    -0.044     (0)  
   (UO2)4(OH)7+    1.815e-24   1.640e-24   -23.741   -23.785    -0.044     (0)  
   (UO2)11(CO3)6(OH)12-2   0.000e+00   0.000e+00   -54.643   -54.821    -0.178     (0)  
   UO2ClO3+        0.000e+00   0.000e+00   -75.308   -75.353    -0.044     (0)  

------------------------------Saturation indices-------------------------------

  Phase               SI** log IAP   log K(283 K,   1 atm)

  (UO2)2Cl3       -58.21    -44.22   13.98  (UO2)2Cl3
  Alstonite        -1.48      1.10    2.58  BaCa(CO3)2
  Anhydrite        -2.37     -6.55   -4.18  CaSO4
  Antarcticite    -13.16     -9.07    4.09  CaCl2:6H2O
  Aphthitalite    -18.38    -22.27   -3.89  NaK3(SO4)2
  Aragonite         0.32      2.54    2.21  CaCO3
  Arcanite         -9.81    -11.88   -2.07  K2SO4
  Artinite         -6.07     14.79   20.85  Mg2CO3(OH)2:3H2O
  Ba             -126.50     22.32  148.81  Ba
  Ba(OH)2:8H2O    -16.27      8.79   25.06  Ba(OH)2:8H2O
  Ba2U2O7         -47.13     -8.40   38.73  Ba2U2O7
  Ba3UO6          -71.75     27.86   99.61  Ba3UO6
  BaCl2           -15.39    -13.04    2.35  BaCl2
  BaCl2:2H2O      -13.10    -13.04    0.06  BaCl2:2H2O
  BaCl2:H2O       -13.84    -13.04    0.80  BaCl2:H2O
  BaMnO4          -33.50    -43.59  -10.09  BaMnO4
  BaO             -41.52      8.79   50.31  BaO
  Barite           -0.27    -10.52  -10.26  BaSO4
  Barytocalcite    -1.64      1.10    2.74  BaCa(CO3)2
  Bassanite        -3.02     -6.55   -3.53  CaSO4:0.5H2O
  BaU2O7          -12.00     11.79   23.79  BaU2O7
  BaUO4            -9.16     10.29   19.45  BaUO4
  Birnessite      -28.79   -114.33  -85.55  Mn8O14:5H2O
  Bischofite      -13.72     -9.32    4.39  MgCl2:6H2O
  Bixbyite         -4.17     -3.35    0.82  Mn2O3
  Bloedite        -13.23    -15.71   -2.48  Na2Mg(SO4)2:4H2O
  Brucite          -4.82     12.50   17.32  Mg(OH)2
  Burkeite        -27.11    -17.62    9.49  Na6CO3(SO4)2
  C               -50.93     16.84   67.77  C
  C(g)           -175.19     16.84  192.03  C
  Ca             -121.18     26.29  147.47  Ca
  Ca(g)          -148.06     26.29  174.35  Ca
  Ca2Cl2(OH)2:H2O -22.60      3.69   26.29  Ca2Cl2(OH)2:H2O
  Ca4Cl2(OH)6:13H2O -39.13     29.20   68.33  Ca4Cl2(OH)6:13H2O
  Calcite           0.47      2.54    2.07  CaCO3
  Carnallite      -20.79    -16.52    4.27  KMgCl3:6H2O
  CaSO4:0.5H2O(beta)  -3.21     -6.55   -3.34  CaSO4:0.5H2O
  CaUO4            -2.90     14.26   17.16  CaUO4
  Celestite        -3.45     -9.12   -5.67  SrSO4
  Chloromagnesite -32.61     -9.32   23.29  MgCl2
  Cl2(g)          -38.84    -35.36    3.48  Cl2
  CO2(g)           -2.49    -10.22   -7.73  CO2
  Dolomite          1.78      4.82    3.04  CaMg(CO3)2
  Dolomite-dis      0.13      4.82    4.69  CaMg(CO3)2
  Dolomite-ord      1.79      4.82    3.03  CaMg(CO3)2
  Epsomite         -4.84     -6.81   -1.96  MgSO4:7H2O
  Fe              -46.15     16.32   62.47  Fe
  Fe(OH)2         -11.99      2.79   14.79  Fe(OH)2
  Fe(OH)3          -1.02      5.41    6.43  Fe(OH)3
  Fe2(SO4)3       -52.47    -47.12    5.35  Fe2(SO4)3
  FeO             -11.72      2.79   14.51  FeO
  Ferrite-Ca       -0.39     23.57   23.96  CaFe2O4
  Ferrite-Dicalcium -24.89     36.33   61.22  Ca2Fe2O5
  Ferrite-Mg       -0.31     23.32   23.63  MgFe2O4
  FeSO4           -19.80    -16.52    3.28  FeSO4
  Gaylussite       -8.44      2.72   11.16  CaNa2(CO3)2:5H2O
  Glauberite       -9.99    -15.46   -5.47  Na2Ca(SO4)2
  Goethite          4.30      5.41    1.11  FeOOH
  Gypsum           -2.04     -6.55   -4.51  CaSO4:2H2O
  H2(g)           -32.06    -35.12   -3.05  H2
  H2O(g)           -2.00     -0.00    2.00  H2O
  Halite           -7.24     -5.71    1.53  NaCl
  Hausmannite      -7.45      5.20   12.65  Mn3O4
  HCl(g)          -17.90    -10.91    6.99  HCl
  Hematite          9.53     10.81    1.28  Fe2O3
  Hexahydrite      -5.08     -6.81   -1.73  MgSO4:6H2O
  Huntite          -2.44      9.38   11.82  CaMg3(CO3)4
  Hydromagnesite  -11.93     21.64   33.56  Mg5(CO3)4(OH)2:4H2O
  Hydrophilite    -21.57     -9.07   12.50  CaCl2
  Ice              -0.08     -0.00    0.08  H2O
  Jarosite        -11.01    -18.68   -7.67  KFe3(SO4)2(OH)6
  Jarosite-Na     -11.75    -17.20   -5.45  NaFe3(SO4)2(OH)6
  K               -64.13     10.48   74.61  K
  K(g)            -75.56     10.48   86.04  K
  K2CO3:1.5H2O    -16.17     -2.79   13.38  K2CO3:1.5H2O
  K2O             -80.56      7.43   88.00  K2O
  K2UO4           -26.56      8.94   35.50  K2UO4
  K3H(SO4)2       -23.85    -27.47   -3.62  K3H(SO4)2
  K8H4(CO3)6:3H2O -59.30    -31.59   27.71  K8H4(CO3)6:3H2O
  Kainite         -13.69    -14.00   -0.31  KMgClSO4:3H2O
  Kalicinite       -6.79     -6.50    0.28  KHCO3
  Kieserite        -6.54     -6.81   -0.27  MgSO4:H2O
  KMgCl3          -38.97    -16.52   22.45  KMgCl3
  KMgCl3:2H2O     -31.18    -16.52   14.66  KMgCl3:2H2O
  KNaCO3:6H2O     -11.56     -1.30   10.26  KNaCO3:6H2O
  Lansfordite      -2.56      2.28    4.84  MgCO3:5H2O
  Lawrencite      -28.87    -19.03    9.84  FeCl2
  Leonite         -14.57    -18.68   -4.11  K2Mg(SO4)2:4H2O
  Lime            -21.61     12.76   34.37  CaO
  Magnesite        -0.41      2.28    2.69  MgCO3
  Magnetite         1.17     13.61   12.44  Fe3O4
  Manganite        -1.51     -1.68   -0.16  MnO(OH)
  Manganosite     -10.49      8.56   19.05  MnO
  Melanterite     -14.03    -16.52   -2.49  FeSO4:7H2O
  Mercallite      -14.15    -15.59   -1.44  KHSO4
  Mg             -103.41     26.03  129.44  Mg
  Mg(g)          -124.49     26.03  150.52  Mg
  Mg1.25SO4(OH)0.5:0.5H2O  -9.78     -3.68    6.10  Mg1.25SO4(OH)0.5:0.5H2O
  Mg1.5SO4(OH)    -10.93     -0.55   10.38  Mg1.5SO4(OH)
  MgCl2:2H2O      -22.92     -9.32   13.59  MgCl2:2H2O
  MgCl2:4H2O      -17.05     -9.32    7.73  MgCl2:4H2O
  MgCl2:H2O       -26.51     -9.32   17.18  MgCl2:H2O
  MgOHCl          -15.41      1.59   17.00  MgOHCl
  MgSO4           -12.47     -6.81    5.67  MgSO4
  MgUO4           -10.84     14.01   24.85  MgUO4
  Mirabilite       -7.05     -8.90   -1.85  Na2SO4:10H2O
  Misenite        -94.36   -105.44  -11.08  K8H6(SO4)7
  Mn              -65.49     22.09   87.58  Mn
  Mn(OH)2(am)      -7.66      8.56   16.22  Mn(OH)2
  Mn(OH)3          -8.02     -1.68    6.34  Mn(OH)3
  MnCl2:2H2O      -17.58    -13.27    4.31  MnCl2:2H2O
  MnCl2:4H2O      -16.13    -13.27    2.86  MnCl2:4H2O
  MnCl2:H2O       -19.27    -13.27    6.00  MnCl2:H2O
  MnO2(gamma)      -5.78    -21.91  -16.13  MnO2
  MnSO4           -13.96    -10.75    3.21  MnSO4
  Molysite        -42.21    -27.33   14.87  FeCl3
  Monohydrocalcite  -0.33      2.54    2.87  CaCO3:H2O
  Na              -58.93     11.97   70.90  Na
  Na(g)           -73.42     11.97   85.39  Na
  Na2CO3          -11.35      0.19   11.54  Na2CO3
  Na2CO3:7H2O      -9.54      0.19    9.72  Na2CO3:7H2O
  Na2O            -60.28     10.41   70.69  Na2O
  Na2U2O7         -10.78     13.42   24.20  Na2U2O7
  Na2UO4(alpha)   -19.73     11.91   31.64  Na2UO4
  Na3H(SO4)2      -22.12    -23.01   -0.89  Na3H(SO4)2
  Na3UO4          -56.36      2.63   58.98  Na3UO4
  Na4Ca(SO4)3:2H2O -18.46    -24.36   -5.89  Na4Ca(SO4)3:2H2O
  Na4UO2(CO3)3    -12.38     -8.34    4.04  Na4UO2(CO3)3
  NaFeO2          -10.79     10.61   21.40  NaFeO2
  Nahcolite        -4.73     -5.02   -0.28  NaHCO3
  Natron           -8.97      0.19    9.15  Na2CO3:10H2O
  NaUO3           -16.64     -7.78    8.86  NaUO3
  Nesquehonite     -3.52      2.28    5.80  MgCO3:3H2O
  O2(g)           -24.29    -27.06   -2.77  O2
  Oxychloride-Mg  -11.74     14.09   25.83  Mg2Cl(OH)3:4H2O
  Pentahydrite     -5.42     -6.81   -1.39  MgSO4:5H2O
  Periclase       -10.22     12.50   22.72  MgO
  Picromerite     -14.24    -18.68   -4.44  K2Mg(SO4)2:6H2O
  Pirssonite       -8.60      2.72   11.32  Na2Ca(CO3)2:2H2O
  Polyhalite      -17.48    -31.79  -14.31  K2MgCa2(SO4)4:2H2O
  Portlandite     -10.99     12.76   23.75  Ca(OH)2
  Pyrolusite       -3.48    -21.91  -18.43  MnO2
  Ra             -133.81     15.04  148.85  Ra
  RaCl2:2H2O      -19.23    -20.32   -1.09  RaCl2:2H2O
  RaSO4            -6.94    -17.80  -10.86  RaSO4
  Rhodochrosite    -1.65     -1.67   -0.02  MnCO3
  Rutherfordine    -4.78     -8.72   -3.94  UO2CO3
  Scacchite       -22.70    -13.27    9.42  MnCl2
  Schoepite        -3.81      1.50    5.31  UO3:2H2O
  Schoepite-dehy(.393)  -5.87      1.50    7.38  UO3:.393H2O
  Schoepite-dehy(.648)  -5.32      1.50    6.82  UO3:.648H2O
  Schoepite-dehy(.85)  -4.13      1.50    5.63  UO3:.85H2O
  Schoepite-dehy(.9)  -4.03      1.50    5.54  UO3:.9H2O
  Schoepite-dehy(1.0)  -4.15      1.50    5.65  UO3:H2O
  Siderite         -7.51     -7.43    0.09  FeCO3
  Sr             -125.75     23.72  149.48  Sr
  Sr(OH)2         -18.76     10.19   28.95  Sr(OH)2
  SrCl2           -20.05    -11.64    8.41  SrCl2
  SrCl2:2H2O      -15.09    -11.64    3.46  SrCl2:2H2O
  SrCl2:6H2O      -12.91    -11.64    1.28  SrCl2:6H2O
  SrCl2:H2O       -16.68    -11.64    5.04  SrCl2:H2O
  SrO             -33.95     10.19   44.15  SrO
  SrUO4(alpha)     -8.88     11.70   20.57  SrUO4
  Starkeyite       -5.81     -6.81   -1.00  MgSO4:4H2O
  Strontianite      0.24     -0.03   -0.27  SrCO3
  Sylvite          -7.86     -7.20    0.66  KCl
  Syngenite       -10.83    -18.43   -7.60  K2Ca(SO4)2:H2O
  Tachyhydrite    -44.86    -27.72   17.14  Mg2CaCl6:12H2O
  Thenardite       -8.57     -8.90   -0.33  Na2SO4
  Thermonatrite   -11.02      0.19   11.20  Na2CO3:H2O
  Todorokite      -16.61    -62.44  -45.82  Mn7O12:3H2O
  Trona-K         -19.39     -7.81   11.59  K2NaH(CO3)2:2H2O
  U              -182.60     42.09  224.69  U
  U(CO3)2         -49.70    -40.60    9.10  U(CO3)2
  U(g)           -273.10     42.09  315.19  U
  U(OH)2SO4       -36.40    -39.47   -3.07  U(OH)2SO4
  U(SO4)2         -48.15    -58.78  -10.64  U(SO4)2
  U(SO4)2:4H2O    -47.88    -58.78  -10.91  U(SO4)2:4H2O
  U(SO4)2:8H2O    -46.54    -58.78  -12.24  U(SO4)2:8H2O
  U2C3           -483.11     -1.88  481.23  U2C3
  U2Cl10(g)      -223.36   -135.11   88.24  U2Cl10
  U2Cl8(g)       -217.04   -127.63   89.41  U2Cl8
  U2O2Cl5        -109.26    -87.72   21.54  U2O2Cl5
  U5O12Cl         -57.17    -75.84  -18.68  U5O12Cl
  UC             -215.30     -9.36  205.94  UC
  UC1.94(alpha)  -265.33      6.47  271.80  UC1.94
  UCl(g)         -231.28      3.16  234.44  UCl
  UCl2(g)        -187.93      6.74  194.66  UCl2
  UCl3            -93.37    -79.23   14.14  UCl3
  UCl3(g)        -142.02    -79.23   62.78  UCl3
  UCl4            -87.96    -63.82   24.15  UCl4
  UCl4(g)        -114.26    -63.82   50.44  UCl4
  UCl5           -107.09    -67.56   39.54  UCl5
  UCl5(g)        -125.77    -67.56   58.21  UCl5
  UCl6           -125.02    -63.98   61.04  UCl6
  UCl6(g)        -131.63    -63.98   67.65  UCl6
  UH3(beta)      -216.81     -5.90  210.90  UH3
  UO(g)          -195.35     28.56  223.92  UO
  UO2(am)         -20.27    -20.16    0.11  UO2
  UO2(g)         -118.17     15.03  133.21  UO2
  UO2(OH)2(beta)   -3.97      1.50    5.48  UO2(OH)2
  UO2.25          -12.09    -16.57   -4.48  UO2.25
  UO2.25(beta)    -12.17    -16.57   -4.40  UO2.25
  UO2.3333(beta)  -22.07    -49.34  -27.27  (UO2.3333)2
  UO2.6667        -14.32    -58.36  -44.04  (UO2.6667)2
  UO2Cl           -23.56    -23.90   -0.34  UO2Cl
  UO2Cl2          -33.45    -20.32   13.12  UO2Cl2
  UO2Cl2(g)       -71.80    -20.32   51.47  UO2Cl2
  UO2Cl2:3H2O     -26.36    -20.32    6.04  UO2Cl2:3H2O
  UO2Cl2:H2O      -29.33    -20.32    9.01  UO2Cl2:H2O
  UO2ClOH:2H2O    -12.03     -9.41    2.62  UO2ClOH:2H2O
  UO2CO3           -4.77     -8.72   -3.95  UO2CO3
  UO2SO4          -20.50    -17.81    2.70  UO2SO4
  UO2SO4:2.5H2O   -16.64    -17.81   -1.17  UO2SO4:2.5H2O
  UO2SO4:3.5H2O   -16.57    -17.81   -1.23  UO2SO4:3.5H2O
  UO2SO4:3H2O     -16.72    -17.81   -1.09  UO2SO4:3H2O
  UO2SO4:H2O      -12.10    -17.81   -5.70  UO2SO4:H2O
  UO3(alpha)       -7.95      1.50    9.45  UO3
  UO3(beta)        -7.59      1.50    9.10  UO3
  UO3(g)          -74.14      1.50   75.64  UO3
  UO3(gamma)       -6.96      1.50    8.46  UO3
  UO3:.9H2O(alpha)  -4.04      1.50    5.55  UO3:.9H2O
  UO3:2H2O         -3.81      1.50    5.31  UO3:2H2O
  UOCl            -68.78    -57.40   11.37  UOCl
  UOCl2           -48.73    -41.99    6.74  UOCl2
  UOCl3           -59.24    -45.73   13.51  UOCl3
  Uraninite       -16.06    -20.16   -4.10  UO2
  Witherite         1.73     -1.44   -3.16  BaCO3
  Wustite         -10.43      2.92   13.36  Fe.947O

**For a gas, SI = log10(fugacity). Fugacity = pressure * phi / 1 atm.
  For ideal gases, phi = 1.

------------------
End of simulation.
------------------

------------------------------------
Reading input data for simulation 3.
------------------------------------

	SOLUTION 2 RED-BRINE-01
	  temp 18
	  units mg/L
	  pH 7.25
	  pe -3
	  Alkalinity 155 as CaCO3
	  Ca 185
	  Mg 78
	  Na 820
	  K 18
	  Cl 1450
	  S(6) 8 as SO4
	  Ba 0.18
	  Sr 3.8
	  Fe 1.6
	  Mn 0.42
	  U 0.0015
	  Ra 2.5973332159e-08
	END
-------------------------------------------
Beginning of initial solution calculations.
-------------------------------------------

Initial solution 2.	RED-BRINE-01

WARNING: Equivalent wt for alkalinity should be Ca.5(CO3).5. Using 50.0355 g/eq.
-----------------------------Solution composition------------------------------

	Elements           Molality       Moles

	Alkalinity        3.106e-03   3.106e-03
	Ba                1.314e-06   1.314e-06
	Ca                4.629e-03   4.629e-03
	Cl                4.101e-02   4.101e-02
	Fe                2.873e-05   2.873e-05
	K                 4.616e-04   4.616e-04
	Mg                3.218e-03   3.218e-03
	Mn                7.666e-06   7.666e-06
	Na                3.577e-02   3.577e-02
	Ra                1.152e-13   1.152e-13
	S(6)              8.352e-05   8.352e-05
	Sr                4.349e-05   4.349e-05
	U                 6.319e-09   6.319e-09

----------------------------Description of solution----------------------------

                                       pH  =   7.250    
                                       pe  =  -3.000    
                        Activity of water  =   0.999
                 Ionic strength (mol/kgw)  =   5.541e-02
                       Mass of water (kg)  =   1.000e+00
                    Total carbon (mol/kg)  =   3.421e-03
                       Total CO2 (mol/kg)  =   3.421e-03
                         Temperature (°C)  =  18.00
                  Electrical balance (eq)  =   7.798e-03
 Percent error, 100*(Cat-|An|)/(Cat+|An|)  =   8.18
                               Iterations  =   8
                                  Total H  = 1.110537e+02
                                  Total O  = 5.553559e+01

----------------------------Distribution of species----------------------------

                                               Log       Log       Log    mole V
   Species          Molality    Activity  Molality  Activity     Gamma   cmł/mol

   OH-             1.230e-07   9.956e-08    -6.910    -7.002    -0.092     (0)  
   H+              6.579e-08   5.623e-08    -7.182    -7.250    -0.068      0.00
   H2O             5.553e+01   9.985e-01     1.744    -0.001     0.000     18.04
Ba            1.314e-06
   Ba+2            1.307e-06   5.947e-07    -5.884    -6.226    -0.342     (0)  
   BaCl+           7.194e-09   5.863e-09    -8.143    -8.232    -0.089     (0)  
   BaCO3           3.856e-10   3.856e-10    -9.414    -9.414     0.000     (0)  
   BaOH+           4.390e-13   3.578e-13   -12.357   -12.446    -0.089     (0)  
C(4)          3.421e-03
   HCO3-           2.835e-03   2.310e-03    -2.547    -2.636    -0.089     (0)  
   CO2             3.288e-04   3.332e-04    -3.483    -3.477     0.006     (0)  
   NaHCO3          1.092e-04   1.092e-04    -3.962    -3.962     0.000     (0)  
   CaHCO3+         7.123e-05   5.805e-05    -4.147    -4.236    -0.089     (0)  
   MgHCO3+         5.118e-05   4.170e-05    -4.291    -4.380    -0.089     (0)  
   FeHCO3+         1.143e-05   9.318e-06    -4.942    -5.031    -0.089     (0)  
   CaCO3           6.670e-06   6.670e-06    -5.176    -5.176     0.000     (0)  
   CO3-2           3.550e-06   1.579e-06    -5.450    -5.802    -0.352     (0)  
   MgCO3           2.396e-06   2.396e-06    -5.621    -5.621     0.000     (0)  
   FeCO3           7.953e-07   7.953e-07    -6.099    -6.099     0.000     (0)  
   NaCO3-          2.358e-07   1.921e-07    -6.628    -6.716    -0.089     (0)  
   MnCO3           2.154e-07   2.154e-07    -6.667    -6.667     0.000     (0)  
   MnHCO3+         7.286e-08   5.938e-08    -7.137    -7.226    -0.089     (0)  
   SrCO3           2.064e-08   2.064e-08    -7.685    -7.685     0.000     (0)  
   BaCO3           3.856e-10   3.856e-10    -9.414    -9.414     0.000     (0)  
   UO2(CO3)3-4     1.054e-13   3.694e-15   -12.977   -14.433    -1.455     (0)  
   UO2(CO3)2-2     6.854e-14   2.977e-14   -13.164   -13.526    -0.362     (0)  
   UO2CO3          1.132e-15   1.132e-15   -14.946   -14.946     0.000     (0)  
   FeCO3+          1.236e-17   1.007e-17   -16.908   -16.997    -0.089     (0)  
   U(CO3)4-4       2.122e-19   7.436e-21   -18.673   -20.129    -1.455     (0)  
   UO2(CO3)3-5     1.234e-22   6.546e-25   -21.909   -24.184    -2.275     (0)  
   (UO2)2CO3(OH)3-   3.767e-23   3.070e-23   -22.424   -22.513    -0.089     (0)  
   U(CO3)5-6       1.235e-24   6.516e-28   -23.908   -27.186    -3.278     (0)  
   (UO2)3(CO3)6-6   2.260e-34   1.193e-37   -33.646   -36.923    -3.278     (0)  
   (UO2)3(OH)5CO2+   2.254e-40   1.837e-40   -39.647   -39.736    -0.089     (0)  
   (UO2)3O(OH)2(HCO3)+   1.820e-40   1.483e-40   -39.740   -39.829    -0.089     (0)  
   (UO2)11(CO3)6(OH)12-2   0.000e+00   0.000e+00  -117.783  -118.145    -0.362     (0)  
Ca            4.629e-03
   Ca+2            4.524e-03   2.147e-03    -2.344    -2.668    -0.324     (0)  
   CaHCO3+         7.123e-05   5.805e-05    -4.147    -4.236    -0.089     (0)  
   CaCl+           1.796e-05   1.463e-05    -4.746    -4.835    -0.089     (0)  
   CaSO4           7.705e-06   7.705e-06    -5.113    -5.113     0.000     (0)  
   CaCO3           6.670e-06   6.670e-06    -5.176    -5.176     0.000     (0)  
   CaCl2           6.079e-07   6.079e-07    -6.216    -6.216     0.000     (0)  
   CaOH+           6.607e-09   5.385e-09    -8.180    -8.269    -0.089     (0)  
Cl(-1)        4.101e-02
   Cl-             4.078e-02   3.280e-02    -1.390    -1.484    -0.095     (0)  
   NaCl            1.581e-04   1.581e-04    -3.801    -3.801     0.000     (0)  
   MgCl+           5.012e-05   4.084e-05    -4.300    -4.389    -0.089     (0)  
   CaCl+           1.796e-05   1.463e-05    -4.746    -4.835    -0.089     (0)  
   CaCl2           6.079e-07   6.079e-07    -6.216    -6.216     0.000     (0)  
   SrCl+           4.333e-07   3.531e-07    -6.363    -6.452    -0.089     (0)  
   KCl             3.540e-07   3.540e-07    -6.451    -6.451     0.000     (0)  
   MnCl+           2.424e-07   1.975e-07    -6.615    -6.704    -0.089     (0)  
   FeCl+           2.188e-07   1.783e-07    -6.660    -6.749    -0.089     (0)  
   BaCl+           7.194e-09   5.863e-09    -8.143    -8.232    -0.089     (0)  
   HCl             4.098e-10   4.098e-10    -9.387    -9.387     0.000     (0)  
   MnCl3-          6.799e-11   5.540e-11   -10.168   -10.256    -0.089     (0)  
   FeCl2           3.027e-11   3.027e-11   -10.519   -10.519     0.000     (0)  
   FeCl4-2         2.133e-13   9.262e-14   -12.671   -13.033    -0.362     (0)  
   UO2Cl+          8.257e-21   6.728e-21   -20.083   -20.172    -0.089     (0)  
   FeCl2+          1.047e-22   8.530e-23   -21.980   -22.069    -0.089     (0)  
   UO2Cl2          1.060e-23   1.060e-23   -22.975   -22.975     0.000     (0)  
   FeCl+2          5.050e-24   2.247e-24   -23.297   -23.648    -0.352     (0)  
   FeCl4-          1.354e-28   1.103e-28   -27.868   -27.957    -0.089     (0)  
   UCl+3           5.686e-32   9.610e-33   -31.245   -32.017    -0.772     (0)  
Cl(1)         0.000e+00
   HClO            0.000e+00   0.000e+00   -52.066   -52.066     0.000     (0)  
   ClO-            0.000e+00   0.000e+00   -52.296   -52.385    -0.089     (0)  
Cl(3)         0.000e+00
   ClO2-           0.000e+00   0.000e+00   -96.013   -96.102    -0.089     (0)  
   HClO2           0.000e+00   0.000e+00  -100.182  -100.182     0.000     (0)  
Cl(5)         0.000e+00
   ClO3-           0.000e+00   0.000e+00  -125.543  -125.635    -0.092     (0)  
   UO2ClO3+        0.000e+00   0.000e+00  -143.852  -143.941    -0.089     (0)  
Cl(7)         0.000e+00
   ClO4-           0.000e+00   0.000e+00  -159.431  -159.522    -0.092     (0)  
Fe(2)         2.873e-05
   Fe+2            1.619e-05   7.684e-06    -4.791    -5.114    -0.324     (0)  
   FeHCO3+         1.143e-05   9.318e-06    -4.942    -5.031    -0.089     (0)  
   FeCO3           7.953e-07   7.953e-07    -6.099    -6.099     0.000     (0)  
   FeCl+           2.188e-07   1.783e-07    -6.660    -6.749    -0.089     (0)  
   FeOH+           5.295e-08   4.315e-08    -7.276    -7.365    -0.089     (0)  
   FeSO4           3.186e-08   3.186e-08    -7.497    -7.497     0.000     (0)  
   FeCl2           3.027e-11   3.027e-11   -10.519   -10.519     0.000     (0)  
   Fe(OH)2         6.086e-12   6.086e-12   -11.216   -11.216     0.000     (0)  
   FeCl4-2         2.133e-13   9.262e-14   -12.671   -13.033    -0.362     (0)  
   Fe(OH)3-        5.279e-15   4.302e-15   -14.277   -14.366    -0.089     (0)  
   Fe(OH)4-2       1.759e-22   7.638e-23   -21.755   -22.117    -0.362     (0)  
Fe(3)         3.795e-12
   Fe(OH)3         3.290e-12   3.290e-12   -11.483   -11.483     0.000     (0)  
   Fe(OH)2+        4.861e-13   3.962e-13   -12.313   -12.402    -0.089     (0)  
   Fe(OH)4-        1.801e-14   1.467e-14   -13.745   -13.833    -0.089     (0)  
   FeOH+2          1.515e-16   6.738e-17   -15.820   -16.171    -0.352     (0)  
   FeCO3+          1.236e-17   1.007e-17   -16.908   -16.997    -0.089     (0)  
   Fe+3            2.513e-21   5.877e-22   -20.600   -21.231    -0.631     (0)  
   FeCl2+          1.047e-22   8.530e-23   -21.980   -22.069    -0.089     (0)  
   FeCl+2          5.050e-24   2.247e-24   -23.297   -23.648    -0.352     (0)  
   FeSO4+          1.399e-24   1.140e-24   -23.854   -23.943    -0.089     (0)  
   Fe(SO4)2-       8.075e-28   6.580e-28   -27.093   -27.182    -0.089     (0)  
   FeCl4-          1.354e-28   1.103e-28   -27.868   -27.957    -0.089     (0)  
   Fe2(OH)2+4      2.655e-30   1.222e-31   -29.576   -30.913    -1.337     (0)  
   Fe3(OH)4+5      1.097e-39   0.000e+00   -38.960   -40.995    -2.035     (0)  
H(0)          3.542e-12
   H2              1.771e-12   1.795e-12   -11.752   -11.746     0.006     (0)  
K             4.616e-04
   K+              4.612e-04   3.709e-04    -3.336    -3.431    -0.095     (0)  
   KCl             3.540e-07   3.540e-07    -6.451    -6.451     0.000     (0)  
   KSO4-           9.328e-08   7.601e-08    -7.030    -7.119    -0.089     (0)  
   KOH             2.284e-11   2.284e-11   -10.641   -10.641     0.000     (0)  
   KHSO4           2.907e-15   2.907e-15   -14.537   -14.537     0.000     (0)  
Mg            3.218e-03
   Mg+2            3.105e-03   1.583e-03    -2.508    -2.801    -0.293     (0)  
   MgHCO3+         5.118e-05   4.170e-05    -4.291    -4.380    -0.089     (0)  
   MgCl+           5.012e-05   4.084e-05    -4.300    -4.389    -0.089     (0)  
   MgSO4           9.196e-06   9.196e-06    -5.036    -5.036     0.000     (0)  
   MgCO3           2.396e-06   2.396e-06    -5.621    -5.621     0.000     (0)  
   Mg4(OH)4+4      2.410e-21   1.109e-22   -20.618   -21.955    -1.337     (0)  
Mn(2)         7.666e-06
   Mn+2            7.114e-06   3.375e-06    -5.148    -5.472    -0.324     (0)  
   MnCl+           2.424e-07   1.975e-07    -6.615    -6.704    -0.089     (0)  
   MnCO3           2.154e-07   2.154e-07    -6.667    -6.667     0.000     (0)  
   MnHCO3+         7.286e-08   5.938e-08    -7.137    -7.226    -0.089     (0)  
   MnSO4           1.973e-08   1.973e-08    -7.705    -7.705     0.000     (0)  
   MnOH+           1.890e-09   1.541e-09    -8.723    -8.812    -0.089     (0)  
   MnCl3-          6.799e-11   5.540e-11   -10.168   -10.256    -0.089     (0)  
   Mn2(OH)3+       9.853e-14   8.029e-14   -13.006   -13.095    -0.089     (0)  
   Mn(OH)2         6.715e-14   6.715e-14   -13.173   -13.173     0.000     (0)  
   Mn2OH+3         3.297e-14   5.572e-15   -13.482   -14.254    -0.772     (0)  
   Mn(OH)3-        1.372e-18   1.118e-18   -17.863   -17.951    -0.089     (0)  
   Mn(OH)4-2       3.872e-25   1.682e-25   -24.412   -24.774    -0.362     (0)  
Mn(3)         3.124e-34
   Mn+3            3.124e-34   5.280e-35   -33.505   -34.277    -0.772     (0)  
Mn(6)         0.000e+00
   MnO4-2          0.000e+00   0.000e+00   -80.222   -80.584    -0.362     (0)  
Mn(7)         0.000e+00
   MnO4-           0.000e+00   0.000e+00   -93.241   -93.333    -0.092     (0)  
Na            3.577e-02
   Na+             3.549e-02   2.892e-02    -1.450    -1.539    -0.089     (0)  
   NaCl            1.581e-04   1.581e-04    -3.801    -3.801     0.000     (0)  
   NaHCO3          1.092e-04   1.092e-04    -3.962    -3.962     0.000     (0)  
   NaSO4-          6.135e-06   4.999e-06    -5.212    -5.301    -0.089     (0)  
   NaCO3-          2.358e-07   1.921e-07    -6.628    -6.716    -0.089     (0)  
   NaOH            5.048e-10   5.048e-10    -9.297    -9.297     0.000     (0)  
O(0)          0.000e+00
   O2              0.000e+00   0.000e+00   -71.029   -71.023     0.006     (0)  
Ra            1.152e-13
   Ra+2            1.152e-13   5.244e-14   -12.938   -13.280    -0.342     (0)  
S(6)          8.352e-05
   SO4-2           6.024e-05   2.616e-05    -4.220    -4.582    -0.362     (0)  
   MgSO4           9.196e-06   9.196e-06    -5.036    -5.036     0.000     (0)  
   CaSO4           7.705e-06   7.705e-06    -5.113    -5.113     0.000     (0)  
   NaSO4-          6.135e-06   4.999e-06    -5.212    -5.301    -0.089     (0)  
   SrSO4           1.020e-07   1.020e-07    -6.991    -6.991     0.000     (0)  
   KSO4-           9.328e-08   7.601e-08    -7.030    -7.119    -0.089     (0)  
   FeSO4           3.186e-08   3.186e-08    -7.497    -7.497     0.000     (0)  
   MnSO4           1.973e-08   1.973e-08    -7.705    -7.705     0.000     (0)  
   HSO4-           1.497e-10   1.220e-10    -9.825    -9.914    -0.089     (0)  
   KHSO4           2.907e-15   2.907e-15   -14.537   -14.537     0.000     (0)  
   H2SO4           7.885e-21   7.885e-21   -20.103   -20.103     0.000     (0)  
   UO2SO4          3.948e-21   3.948e-21   -20.404   -20.404     0.000     (0)  
   UO2(SO4)2-2     1.773e-24   7.702e-25   -23.751   -24.113    -0.362     (0)  
   FeSO4+          1.399e-24   1.140e-24   -23.854   -23.943    -0.089     (0)  
   Fe(SO4)2-       8.075e-28   6.580e-28   -27.093   -27.182    -0.089     (0)  
   USO4+2          8.659e-31   3.852e-31   -30.063   -30.414    -0.352     (0)  
   U(SO4)2         5.577e-32   5.577e-32   -31.254   -31.254     0.000     (0)  
Sr            4.349e-05
   Sr+2            4.293e-05   1.954e-05    -4.367    -4.709    -0.342     (0)  
   SrCl+           4.333e-07   3.531e-07    -6.363    -6.452    -0.089     (0)  
   SrSO4           1.020e-07   1.020e-07    -6.991    -6.991     0.000     (0)  
   SrCO3           2.064e-08   2.064e-08    -7.685    -7.685     0.000     (0)  
   SrOH+           2.183e-11   1.779e-11   -10.661   -10.750    -0.089     (0)  
U(3)          3.801e-39
   U+3             3.801e-39   6.423e-40   -38.420   -39.192    -0.772     (0)  
U(4)          6.319e-09
   U(OH)4          6.319e-09   6.319e-09    -8.199    -8.199     0.000     (0)  
   U(CO3)4-4       2.122e-19   7.436e-21   -18.673   -20.129    -1.455     (0)  
   U(CO3)5-6       1.235e-24   6.516e-28   -23.908   -27.186    -3.278     (0)  
   UOH+3           8.836e-26   1.493e-26   -25.054   -25.826    -0.772     (0)  
   USO4+2          8.659e-31   3.852e-31   -30.063   -30.414    -0.352     (0)  
   U+4             1.016e-31   4.677e-33   -30.993   -32.330    -1.337     (0)  
   UCl+3           5.686e-32   9.610e-33   -31.245   -32.017    -0.772     (0)  
   U(SO4)2         5.577e-32   5.577e-32   -31.254   -31.254     0.000     (0)  
U(5)          4.874e-15
   UO2+            4.874e-15   3.972e-15   -14.312   -14.401    -0.089     (0)  
   UO2(CO3)3-5     1.234e-22   6.546e-25   -21.909   -24.184    -2.275     (0)  
U(6)          1.775e-13
   UO2(CO3)3-4     1.054e-13   3.694e-15   -12.977   -14.433    -1.455     (0)  
   UO2(CO3)2-2     6.854e-14   2.977e-14   -13.164   -13.526    -0.362     (0)  
   UO2(OH)2        2.281e-15   2.281e-15   -14.642   -14.642     0.000     (0)  
   UO2CO3          1.132e-15   1.132e-15   -14.946   -14.946     0.000     (0)  
   UO2(OH)3-       6.155e-17   5.016e-17   -16.211   -16.300    -0.089     (0)  
   UO2OH+          1.322e-17   1.077e-17   -16.879   -16.968    -0.089     (0)  
   UO2+2           3.356e-19   1.493e-19   -18.474   -18.826    -0.352     (0)  
   UO2Cl+          8.257e-21   6.728e-21   -20.083   -20.172    -0.089     (0)  
   UO2SO4          3.948e-21   3.948e-21   -20.404   -20.404     0.000     (0)  
   (UO2)2CO3(OH)3-   3.767e-23   3.070e-23   -22.424   -22.513    -0.089     (0)  
   UO2(OH)4-2      3.196e-23   1.388e-23   -22.495   -22.858    -0.362     (0)  
   UO2Cl2          1.060e-23   1.060e-23   -22.975   -22.975     0.000     (0)  
   UO2(SO4)2-2     1.773e-24   7.702e-25   -23.751   -24.113    -0.362     (0)  
   (UO2)2(OH)2+2   2.533e-29   1.127e-29   -28.596   -28.948    -0.352     (0)  
   (UO2)2OH+3      4.597e-33   7.769e-34   -32.338   -33.110    -0.772     (0)  
   (UO2)3(CO3)6-6   2.260e-34   1.193e-37   -33.646   -36.923    -3.278     (0)  
   (UO2)3(OH)5+    7.054e-37   5.749e-37   -36.152   -36.240    -0.089     (0)  
   (UO2)3(OH)7-    2.022e-37   1.648e-37   -36.694   -36.783    -0.089     (0)  
   (UO2)3(OH)4+2   8.760e-40   3.897e-40   -39.057   -39.409    -0.352     (0)  
   (UO2)3(OH)5CO2+   2.254e-40   1.837e-40   -39.647   -39.736    -0.089     (0)  
   (UO2)3O(OH)2(HCO3)+   1.820e-40   1.483e-40   -39.740   -39.829    -0.089     (0)  
   (UO2)4(OH)7+    0.000e+00   0.000e+00   -46.420   -46.509    -0.089     (0)  
   (UO2)11(CO3)6(OH)12-2   0.000e+00   0.000e+00  -117.783  -118.145    -0.362     (0)  
   UO2ClO3+        0.000e+00   0.000e+00  -143.852  -143.941    -0.089     (0)  

------------------------------Saturation indices-------------------------------

  Phase               SI** log IAP   log K(291 K,   1 atm)

  (UO2)2Cl3       -50.95    -37.68   13.27  (UO2)2Cl3
  Alstonite        -2.25      0.33    2.58  BaCa(CO3)2
  Anhydrite        -2.98     -7.25   -4.27  CaSO4
  Antarcticite     -9.73     -5.64    4.09  CaCl2:6H2O
  Aphthitalite    -17.11    -21.00   -3.89  NaK3(SO4)2
  Aragonite        -0.13      1.95    2.08  CaCO3
  Arcanite         -9.50    -11.44   -1.94  K2SO4
  Artinite         -6.67     13.51   20.18  Mg2CO3(OH)2:3H2O
  Ba             -100.89     43.79  144.67  Ba
  Ba(OH)2:8H2O    -16.47      8.27   24.74  Ba(OH)2:8H2O
  Ba2U2O7         -35.24      2.24   37.48  Ba2U2O7
  Ba3UO6          -76.25     20.49   96.74  Ba3UO6
  BaCl2           -11.48     -9.19    2.29  BaCl2
  BaCl2:2H2O       -9.34     -9.20    0.14  BaCl2:2H2O
  BaCl2:H2O       -10.01     -9.19    0.81  BaCl2:H2O
  BaMnO4          -76.72    -86.81  -10.09  BaMnO4
  BaO             -40.66      8.27   48.93  BaO
  Barite           -0.69    -10.81  -10.12  BaSO4
  Barytocalcite    -2.41      0.33    2.74  BaCa(CO3)2
  Bassanite        -3.63     -7.25   -3.63  CaSO4:0.5H2O
  BaU2O7          -23.17     -0.38   22.79  BaU2O7
  BaUO4           -14.81      3.95   18.76  BaUO4
  Birnessite     -154.57   -240.11  -85.55  Mn8O14:5H2O
  Bischofite      -10.17     -5.77    4.39  MgCl2:6H2O
  Bixbyite        -24.90    -25.06   -0.16  Mn2O3
  Bloedite        -12.57    -15.05   -2.48  Na2Mg(SO4)2:4H2O
  Brucite          -5.06     11.70   16.75  Mg(OH)2
  Burkeite        -23.27    -13.78    9.49  Na6CO3(SO4)2
  C                -4.66     61.14   65.80  C
  C(g)           -125.29     61.14  186.43  C
  Ca              -95.95     47.34  143.30  Ca
  Ca(g)          -121.94     47.34  169.28  Ca
  Ca2Cl2(OH)2:H2O -20.10      6.19   26.29  Ca2Cl2(OH)2:H2O
  Ca4Cl2(OH)6:13H2O -38.48     29.85   68.33  Ca4Cl2(OH)6:13H2O
  Calcite           0.01      1.95    1.93  CaCO3
  Carnallite      -14.96    -10.69    4.27  KMgCl3:6H2O
  CaSO4:0.5H2O(beta)  -3.81     -7.25   -3.45  CaSO4:0.5H2O
  CaUO4            -8.99      7.50   16.49  CaUO4
  Celestite        -3.59     -9.29   -5.70  SrSO4
  Chloromagnesite -28.26     -5.77   22.49  MgCl2
  Cl2(g)          -56.20    -52.98    3.22  Cl2
  CO2(g)           -2.10     -9.89   -7.78  CO2
  Dolomite          1.03      3.76    2.73  CaMg(CO3)2
  Dolomite-dis     -0.56      3.76    4.32  CaMg(CO3)2
  Dolomite-ord      1.04      3.76    2.72  CaMg(CO3)2
  Epsomite         -5.43     -7.39   -1.96  MgSO4:7H2O
  Fe              -15.69     44.90   60.58  Fe
  Fe(OH)2          -4.91      9.38   14.30  Fe(OH)2
  Fe(OH)3          -5.48      0.52    6.00  Fe(OH)3
  Fe2(SO4)3       -60.31    -56.21    4.11  Fe2(SO4)3
  FeO              -4.59      9.38   13.97  FeO
  Ferrite-Ca       -9.75     12.87   22.61  CaFe2O4
  Ferrite-Dicalcium -34.11     24.70   58.80  Ca2Fe2O5
  Ferrite-Mg       -9.47     12.74   22.20  MgFe2O4
  FeSO4           -12.61     -9.70    2.92  FeSO4
  Gaylussite       -7.69      3.48   11.16  CaNa2(CO3)2:5H2O
  Glauberite       -9.44    -14.91   -5.47  Na2Ca(SO4)2
  Goethite         -0.27      0.52    0.79  FeOOH
  Gypsum           -2.73     -7.25   -4.52  CaSO4:2H2O
  H2(g)            -8.66    -11.75   -3.08  H2
  H2O(g)           -1.77     -0.00    1.77  H2O
  Halite           -4.57     -3.02    1.55  NaCl
  Hausmannite     -27.31    -16.03   11.28  Mn3O4
  HCl(g)          -15.35     -8.73    6.61  HCl
  Hematite          0.41      1.04    0.62  Fe2O3
  Hexahydrite      -5.66     -7.39   -1.73  MgSO4:6H2O
  Huntite          -3.56      7.38   10.95  CaMg3(CO3)4
  Hydromagnesite  -13.07     18.95   32.02  Mg5(CO3)4(OH)2:4H2O
  Hydrophilite    -17.73     -5.64   12.09  CaCl2
  Ice              -0.11     -0.00    0.11  H2O
  Jarosite        -24.18    -32.79   -8.62  KFe3(SO4)2(OH)6
  Jarosite-Na     -25.45    -30.90   -5.45  NaFe3(SO4)2(OH)6
  K               -51.05     21.57   72.63  K
  K(g)            -62.03     21.57   83.60  K
  K2CO3:1.5H2O    -15.63     -2.25   13.38  K2CO3:1.5H2O
  K2O             -78.19      7.64   85.83  K2O
  K2UO4           -31.30      3.31   34.61  K2UO4
  K3H(SO4)2       -23.08    -26.71   -3.62  K3H(SO4)2
  K8H4(CO3)6:3H2O -56.48    -28.77   27.71  K8H4(CO3)6:3H2O
  Kainite         -11.99    -12.30   -0.31  KMgClSO4:3H2O
  Kalicinite       -6.35     -6.07    0.28  KHCO3
  Kieserite        -7.12     -7.38   -0.27  MgSO4:H2O
  KMgCl3          -32.48    -10.68   21.80  KMgCl3
  KMgCl3:2H2O     -24.97    -10.68   14.28  KMgCl3:2H2O
  KNaCO3:6H2O     -10.62     -0.36   10.26  KNaCO3:6H2O
  Lansfordite      -3.03      1.81    4.84  MgCO3:5H2O
  Lawrencite      -17.50     -8.08    9.41  FeCl2
  Leonite         -14.72    -18.83   -4.11  K2Mg(SO4)2:4H2O
  Lime            -21.56     11.83   33.39  CaO
  Magnesite        -0.65      1.81    2.46  MgCO3
  Magnetite        -0.91     10.42   11.33  Fe3O4
  Manganite       -12.36    -12.53   -0.16  MnO(OH)
  Manganosite      -9.40      9.03   18.43  MnO
  Melanterite      -7.26     -9.70   -2.44  FeSO4:7H2O
  Mercallite      -13.82    -15.26   -1.44  KHSO4
  Mg              -78.45     47.21  125.66  Mg
  Mg(g)           -98.79     47.21  146.00  Mg
  Mg1.25SO4(OH)0.5:0.5H2O -10.07     -4.46    5.61  Mg1.25SO4(OH)0.5:0.5H2O
  Mg1.5SO4(OH)    -11.28     -1.53    9.74  Mg1.5SO4(OH)
  MgCl2:2H2O      -18.89     -5.77   13.12  MgCl2:2H2O
  MgCl2:4H2O      -13.27     -5.77    7.49  MgCl2:4H2O
  MgCl2:H2O       -22.35     -5.77   16.58  MgCl2:H2O
  MgOHCl          -13.43      2.96   16.39  MgOHCl
  MgSO4           -12.59     -7.38    5.21  MgSO4
  MgUO4           -16.46      7.37   23.83  MgUO4
  Mirabilite       -6.19     -7.67   -1.48  Na2SO4:10H2O
  Misenite        -91.95   -103.02  -11.08  K8H6(SO4)7
  Mn              -40.50     44.54   85.04  Mn
  Mn(OH)2(am)      -6.69      9.03   15.72  Mn(OH)2
  Mn(OH)3         -18.87    -12.53    6.34  Mn(OH)3
  MnCl2:2H2O      -12.58     -8.44    4.14  MnCl2:2H2O
  MnCl2:4H2O      -11.24     -8.44    2.80  MnCl2:4H2O
  MnCl2:H2O       -14.19     -8.44    5.75  MnCl2:H2O
  MnO2(gamma)     -26.90    -43.03  -16.13  MnO2
  MnSO4           -12.94    -10.05    2.88  MnSO4
  Molysite        -39.79    -25.68   14.11  FeCl3
  Monohydrocalcite  -0.82      1.94    2.76  CaCO3:H2O
  Na              -45.51     23.47   68.97  Na
  Na(g)           -59.45     23.47   82.91  Na
  Na2CO3           -9.80      1.54   11.33  Na2CO3
  Na2CO3:7H2O      -8.30      1.53    9.83  Na2CO3:7H2O
  Na2O            -57.48     11.42   68.90  Na2O
  Na2U2O7         -20.55      2.77   23.32  Na2U2O7
  Na2UO4(alpha)   -23.65      7.10   30.75  Na2UO4
  Na3H(SO4)2      -20.14    -21.03   -0.89  Na3H(SO4)2
  Na3UO4          -47.50      9.98   57.48  Na3UO4
  Na4Ca(SO4)3:2H2O -16.68    -22.57   -5.89  Na4Ca(SO4)3:2H2O
  Na4UO2(CO3)3    -15.18    -11.14    4.04  Na4UO2(CO3)3
  NaFeO2          -14.34      6.23   20.57  NaFeO2
  Nahcolite        -3.97     -4.18   -0.21  NaHCO3
  Natron           -7.86      1.53    9.38  Na2CO3:10H2O
  NaUO3           -10.01     -1.44    8.57  NaUO3
  Nesquehonite     -3.69      1.81    5.50  MgCO3:3H2O
  O2(g)           -68.19    -71.02   -2.84  O2
  Oxychloride-Mg  -11.17     14.66   25.83  Mg2Cl(OH)3:4H2O
  Pentahydrite     -6.00     -7.39   -1.39  MgSO4:5H2O
  Periclase       -10.26     11.70   21.96  MgO
  Picromerite     -14.39    -18.83   -4.44  K2Mg(SO4)2:6H2O
  Pirssonite       -7.84      3.48   11.32  Na2Ca(CO3)2:2H2O
  Polyhalite      -19.02    -33.33  -14.31  K2MgCa2(SO4)4:2H2O
  Portlandite     -11.26     11.83   23.09  Ca(OH)2
  Pyrolusite      -25.02    -43.03  -18.01  MnO2
  Ra             -108.04     36.73  144.77  Ra
  RaCl2:2H2O      -15.33    -16.25   -0.92  RaCl2:2H2O
  RaSO4            -7.22    -17.86  -10.64  RaSO4
  Rhodochrosite    -0.73     -0.86   -0.13  MnCO3
  Rutherfordine   -10.18    -14.21   -4.04  UO2CO3
  Scacchite       -17.49     -8.44    9.05  MnCl2
  Schoepite        -9.38     -4.33    5.05  UO3:2H2O
  Schoepite-dehy(.393) -11.34     -4.33    7.02  UO3:.393H2O
  Schoepite-dehy(.648) -10.81     -4.33    6.48  UO3:.648H2O
  Schoepite-dehy(.85)  -9.66     -4.33    5.34  UO3:.85H2O
  Schoepite-dehy(.9)  -9.58     -4.33    5.25  UO3:.9H2O
  Schoepite-dehy(1.0)  -9.68     -4.33    5.35  UO3:H2O
  Siderite         -0.42     -0.50   -0.08  FeCO3
  Sr              -99.97     45.30  145.27  Sr
  Sr(OH)2         -18.38      9.79   28.17  Sr(OH)2
  SrCl2           -15.81     -7.68    8.14  SrCl2
  SrCl2:2H2O      -11.04     -7.68    3.37  SrCl2:2H2O
  SrCl2:6H2O       -9.07     -7.68    1.39  SrCl2:6H2O
  SrCl2:H2O       -12.55     -7.68    4.88  SrCl2:H2O
  SrO             -33.12      9.79   42.91  SrO
  SrUO4(alpha)    -14.34      5.46   19.80  SrUO4
  Starkeyite       -6.39     -7.39   -1.00  MgSO4:4H2O
  Strontianite      0.21     -0.10   -0.31  SrCO3
  Sylvite          -5.67     -4.91    0.75  KCl
  Syngenite       -11.09    -18.69   -7.60  K2Ca(SO4)2:H2O
  Tachyhydrite    -34.33    -17.18   17.14  Mg2CaCl6:12H2O
  Thenardite       -7.32     -7.66   -0.34  Na2SO4
  Thermonatrite    -9.52      1.54   11.06  Na2CO3:H2O
  Todorokite     -124.43   -170.26  -45.82  Mn7O12:3H2O
  Trona-K         -18.01     -6.42   11.59  K2NaH(CO3)2:2H2O
  U              -115.97    102.21  218.18  U
  U(CO3)2         -31.34    -23.10    8.24  U(CO3)2
  U(g)           -203.77    102.21  305.98  U
  U(OH)2SO4       -19.34    -22.41   -3.07  U(OH)2SO4
  U(SO4)2         -30.38    -41.49  -11.12  U(SO4)2
  U(SO4)2:4H2O    -30.24    -41.50  -11.25  U(SO4)2:4H2O
  U(SO4)2:8H2O    -29.08    -41.50  -12.42  U(SO4)2:8H2O
  U2C3           -211.98    255.06  467.04  U2C3
  U2Cl10(g)      -186.82   -101.64   85.17  U2Cl10
  U2Cl8(g)       -162.06    -76.53   85.52  U2Cl8
  U2O2Cl5         -74.41    -54.15   20.26  U2O2Cl5
  U5O12Cl         -25.74    -44.49  -18.75  U5O12Cl
  UC             -102.89     96.96  199.86  UC
  UC1.94(alpha)  -109.36    154.43  263.79  UC1.94
  UCl(g)         -172.37     55.14  227.51  UCl
  UCl2(g)        -139.48     49.23  188.70  UCl2
  UCl3            -57.15    -43.64   13.51  UCl3
  UCl3(g)        -104.14    -43.64   60.49  UCl3
  UCl4            -61.20    -38.27   22.93  UCl4
  UCl4(g)         -86.48    -38.27   48.21  UCl4
  UCl5            -89.10    -50.82   38.28  UCl5
  UCl5(g)        -106.98    -50.82   56.16  UCl5
  UCl6           -115.84    -56.73   59.11  UCl6
  UCl6(g)        -122.05    -56.73   65.32  UCl6
  UH3(beta)      -115.73     89.09  204.82  UH3
  UO(g)          -150.52     66.70  217.22  UO
  UO2(am)          -3.44     -3.33    0.11  UO2
  UO2(g)          -97.87     31.19  129.05  UO2
  UO2(OH)2(beta)   -9.51     -4.33    5.19  UO2(OH)2
  UO2.25           -0.56     -5.24   -4.68  UO2.25
  UO2.25(beta)     -0.64     -5.24   -4.60  UO2.25
  UO2.3333(beta)   -2.82    -30.33  -27.52  (UO2.3333)2
  UO2.6667        -10.21    -54.01  -43.81  (UO2.6667)2
  UO2Cl           -15.44    -15.89   -0.44  UO2Cl
  UO2Cl2          -34.37    -21.79   12.57  UO2Cl2
  UO2Cl2(g)       -71.34    -21.79   49.54  UO2Cl2
  UO2Cl2:3H2O     -27.60    -21.80    5.80  UO2Cl2:3H2O
  UO2Cl2:H2O      -30.41    -21.79    8.61  UO2Cl2:H2O
  UO2ClOH:2H2O    -15.51    -13.06    2.45  UO2ClOH:2H2O
  UO2CO3          -10.16    -14.21   -4.05  UO2CO3
  UO2SO4          -25.69    -23.41    2.28  UO2SO4
  UO2SO4:2.5H2O   -22.06    -23.41   -1.35  UO2SO4:2.5H2O
  UO2SO4:3.5H2O   -22.04    -23.41   -1.37  UO2SO4:3.5H2O
  UO2SO4:3H2O     -22.14    -23.41   -1.27  UO2SO4:3H2O
  UO2SO4:H2O      -17.51    -23.41   -5.90  UO2SO4:H2O
  UO3(alpha)      -13.33     -4.33    9.01  UO3
  UO3(beta)       -12.99     -4.33    8.67  UO3
  UO3(g)          -77.41     -4.33   73.08  UO3
  UO3(gamma)      -12.38     -4.33    8.05  UO3
  UO3:.9H2O(alpha)  -9.58     -4.33    5.26  UO3:.9H2O
  UO3:2H2O         -9.38     -4.33    5.05  UO3:2H2O
  UOCl            -37.00    -26.18   10.83  UOCl
  UOCl2           -26.82    -20.80    6.02  UOCl2
  UOCl3           -46.36    -33.35   13.01  UOCl3
  Uraninite         1.17     -3.33   -4.50  UO2
  Witherite         1.47     -1.61   -3.08  BaCO3
  Wustite          -4.89      7.95   12.84  Fe.947O

**For a gas, SI = log10(fugacity). Fugacity = pressure * phi / 1 atm.
  For ideal gases, phi = 1.

------------------
End of simulation.
------------------

------------------------------------
Reading input data for simulation 4.
------------------------------------

	SOLUTION 3 TAIL-SO4-01
	  temp 12
	  units mg/L
	  pH 6.75
	  pe 4.2
	  Alkalinity 88 as CaCO3
	  Ca 285
	  Mg 112
	  Na 135
	  K 8.4
	  Cl 165
	  S(6) 1040 as SO4
	  Ba 0.018
	  Sr 2.6
	  Fe 0.34
	  Mn 0.23
	  U 0.044
	  Ra 8.74891188514e-09
	END
-------------------------------------------
Beginning of initial solution calculations.
-------------------------------------------

Initial solution 3.	TAIL-SO4-01

WARNING: Equivalent wt for alkalinity should be Ca.5(CO3).5. Using 50.0355 g/eq.
-----------------------------Solution composition------------------------------

	Elements           Molality       Moles

	Alkalinity        1.762e-03   1.762e-03
	Ba                1.313e-07   1.313e-07
	Ca                7.124e-03   7.124e-03
	Cl                4.663e-03   4.663e-03
	Fe                6.099e-06   6.099e-06
	K                 2.152e-04   2.152e-04
	Mg                4.617e-03   4.617e-03
	Mn                4.194e-06   4.194e-06
	Na                5.883e-03   5.883e-03
	Ra                3.878e-14   3.878e-14
	S(6)              1.085e-02   1.085e-02
	Sr                2.973e-05   2.973e-05
	U                 1.852e-07   1.852e-07

----------------------------Description of solution----------------------------

                                       pH  =   6.750    
                                       pe  =   4.200    
                        Activity of water  =   0.999
                 Ionic strength (mol/kgw)  =   3.999e-02
                       Mass of water (kg)  =   1.000e+00
                    Total carbon (mol/kg)  =   2.450e-03
                       Total CO2 (mol/kg)  =   2.450e-03
                         Temperature (°C)  =  12.00
                  Electrical balance (eq)  =   1.538e-03
 Percent error, 100*(Cat-|An|)/(Cat+|An|)  =   3.33
                               Iterations  =  10
                                  Total H  = 1.110524e+02
                                  Total O  = 5.557538e+01

----------------------------Distribution of species----------------------------

                                               Log       Log       Log    mole V
   Species          Molality    Activity  Molality  Activity     Gamma   cmł/mol

   H+              2.050e-07   1.778e-07    -6.688    -6.750    -0.062      0.00
   OH-             2.319e-08   1.928e-08    -7.635    -7.715    -0.080     (0)  
   H2O             5.553e+01   9.994e-01     1.744    -0.000     0.000     18.03
Ba            1.313e-07
   Ba+2            1.312e-07   6.558e-08    -6.882    -7.183    -0.301     (0)  
   BaCl+           8.267e-11   6.907e-11   -10.083   -10.161    -0.078     (0)  
   BaCO3           6.006e-12   6.006e-12   -11.221   -11.221     0.000     (0)  
   BaOH+           1.495e-14   1.249e-14   -13.825   -13.903    -0.078     (0)  
C(4)          2.450e-03
   HCO3-           1.653e-03   1.381e-03    -2.782    -2.860    -0.078     (0)  
   CO2             6.907e-04   6.975e-04    -3.161    -3.156     0.004     (0)  
   CaHCO3+         5.610e-05   4.687e-05    -4.251    -4.329    -0.078     (0)  
   MgHCO3+         3.356e-05   2.804e-05    -4.474    -4.552    -0.078     (0)  
   NaHCO3          1.213e-05   1.213e-05    -4.916    -4.916     0.000     (0)  
   FeHCO3+         1.434e-06   1.198e-06    -5.844    -5.922    -0.078     (0)  
   CaCO3           1.285e-06   1.285e-06    -5.891    -5.891     0.000     (0)  
   CO3-2           5.306e-07   2.606e-07    -6.275    -6.584    -0.309     (0)  
   MgCO3           4.090e-07   4.090e-07    -6.388    -6.388     0.000     (0)  
   UO2(CO3)2-2     1.144e-07   5.515e-08    -6.942    -7.258    -0.317     (0)  
   UO2(CO3)3-4     3.507e-08   1.873e-09    -7.455    -8.727    -1.272     (0)  
   FeCO3           3.233e-08   3.233e-08    -7.490    -7.490     0.000     (0)  
   MnHCO3+         1.920e-08   1.604e-08    -7.717    -7.795    -0.078     (0)  
   MnCO3           1.840e-08   1.840e-08    -7.735    -7.735     0.000     (0)  
   UO2CO3          1.439e-08   1.439e-08    -7.842    -7.842     0.000     (0)  
   NaCO3-          7.243e-09   6.052e-09    -8.140    -8.218    -0.078     (0)  
   SrCO3           1.579e-09   1.579e-09    -8.802    -8.802     0.000     (0)  
   (UO2)2CO3(OH)3-   1.383e-09   1.156e-09    -8.859    -8.937    -0.078     (0)  
   FeCO3+          9.917e-12   8.286e-12   -11.004   -11.082    -0.078     (0)  
   BaCO3           6.006e-12   6.006e-12   -11.221   -11.221     0.000     (0)  
   (UO2)3(CO3)6-6   1.599e-15   2.183e-18   -14.796   -17.661    -2.865     (0)  
   (UO2)3(OH)5CO2+   6.565e-19   5.485e-19   -18.183   -18.261    -0.078     (0)  
   (UO2)3O(OH)2(HCO3)+   5.297e-19   4.425e-19   -18.276   -18.354    -0.078     (0)  
   UO2(CO3)3-5     1.928e-24   1.978e-26   -23.715   -25.704    -1.989     (0)  
   U(CO3)4-4       1.412e-26   7.541e-28   -25.850   -27.123    -1.272     (0)  
   U(CO3)5-6       5.635e-33   7.692e-36   -32.249   -35.114    -2.865     (0)  
   (UO2)11(CO3)6(OH)12-2   0.000e+00   0.000e+00   -41.275   -41.592    -0.317     (0)  
Ca            7.124e-03
   Ca+2            5.623e-03   2.904e-03    -2.250    -2.537    -0.287     (0)  
   CaSO4           1.441e-03   1.441e-03    -2.841    -2.841     0.000     (0)  
   CaHCO3+         5.610e-05   4.687e-05    -4.251    -4.329    -0.078     (0)  
   CaCl+           2.749e-06   2.297e-06    -5.561    -5.639    -0.078     (0)  
   CaCO3           1.285e-06   1.285e-06    -5.891    -5.891     0.000     (0)  
   CaCl2           1.201e-08   1.201e-08    -7.921    -7.921     0.000     (0)  
   CaOH+           2.759e-09   2.305e-09    -8.559    -8.637    -0.078     (0)  
Cl(-1)        4.663e-03
   Cl-             4.650e-03   3.847e-03    -2.333    -2.415    -0.082     (0)  
   MgCl+           6.602e-06   5.516e-06    -5.180    -5.258    -0.078     (0)  
   NaCl            2.927e-06   2.927e-06    -5.534    -5.534     0.000     (0)  
   CaCl+           2.749e-06   2.297e-06    -5.561    -5.639    -0.078     (0)  
   SrCl+           2.563e-08   2.141e-08    -7.591    -7.669    -0.078     (0)  
   KCl             1.700e-08   1.700e-08    -7.769    -7.769     0.000     (0)  
   CaCl2           1.201e-08   1.201e-08    -7.921    -7.921     0.000     (0)  
   MnCl+           1.078e-08   9.003e-09    -7.968    -8.046    -0.078     (0)  
   FeCl+           5.278e-09   4.410e-09    -8.278    -8.356    -0.078     (0)  
   HCl             1.492e-10   1.492e-10    -9.826    -9.826     0.000     (0)  
   BaCl+           8.267e-11   6.907e-11   -10.083   -10.161    -0.078     (0)  
   FeCl2           8.531e-14   8.531e-14   -13.069   -13.069     0.000     (0)  
   UO2Cl+          7.005e-14   5.852e-14   -13.155   -13.233    -0.078     (0)  
   MnCl3-          4.832e-14   4.037e-14   -13.316   -13.394    -0.078     (0)  
   UO2Cl2          1.018e-17   1.018e-17   -16.992   -16.992     0.000     (0)  
   FeCl4-2         7.529e-18   3.629e-18   -17.123   -17.440    -0.317     (0)  
   FeCl2+          3.892e-18   3.252e-18   -17.410   -17.488    -0.078     (0)  
   FeCl+2          1.087e-18   5.336e-19   -17.964   -18.273    -0.309     (0)  
   FeCl4-          6.923e-26   5.784e-26   -25.160   -25.238    -0.078     (0)  
   UCl+3           5.076e-37   1.061e-37   -36.294   -36.974    -0.680     (0)  
Cl(1)         0.000e+00
   HClO            0.000e+00   0.000e+00   -40.257   -40.257     0.000     (0)  
   ClO-            0.000e+00   0.000e+00   -40.998   -41.076    -0.078     (0)  
Cl(3)         0.000e+00
   ClO2-           0.000e+00   0.000e+00   -72.402   -72.480    -0.078     (0)  
   HClO2           0.000e+00   0.000e+00   -76.060   -76.060     0.000     (0)  
Cl(5)         0.000e+00
   ClO3-           0.000e+00   0.000e+00   -89.323   -89.403    -0.080     (0)  
   UO2ClO3+        0.000e+00   0.000e+00   -99.719   -99.797    -0.078     (0)  
Cl(7)         0.000e+00
   ClO4-           0.000e+00   0.000e+00  -110.648  -110.728    -0.080     (0)  
Fe(2)         5.678e-06
   Fe+2            3.200e-06   1.652e-06    -5.495    -5.782    -0.287     (0)  
   FeHCO3+         1.434e-06   1.198e-06    -5.844    -5.922    -0.078     (0)  
   FeSO4           1.003e-06   1.003e-06    -5.999    -5.999     0.000     (0)  
   FeCO3           3.233e-08   3.233e-08    -7.490    -7.490     0.000     (0)  
   FeCl+           5.278e-09   4.410e-09    -8.278    -8.356    -0.078     (0)  
   FeOH+           3.515e-09   2.937e-09    -8.454    -8.532    -0.078     (0)  
   Fe(OH)2         1.311e-13   1.311e-13   -12.882   -12.882     0.000     (0)  
   FeCl2           8.531e-14   8.531e-14   -13.069   -13.069     0.000     (0)  
   Fe(OH)3-        3.511e-17   2.933e-17   -16.455   -16.533    -0.078     (0)  
   FeCl4-2         7.529e-18   3.629e-18   -17.123   -17.440    -0.317     (0)  
   Fe(OH)4-2       3.420e-25   1.649e-25   -24.466   -24.783    -0.317     (0)  
Fe(3)         4.215e-07
   Fe(OH)3         2.892e-07   2.892e-07    -6.539    -6.539     0.000     (0)  
   Fe(OH)2+        1.317e-07   1.100e-07    -6.880    -6.959    -0.078     (0)  
   Fe(OH)4-        4.887e-10   4.083e-10    -9.311    -9.389    -0.078     (0)  
   FeOH+2          1.204e-10   5.912e-11    -9.919   -10.228    -0.309     (0)  
   FeCO3+          9.917e-12   8.286e-12   -11.004   -11.082    -0.078     (0)  
   Fe+3            6.019e-15   1.629e-15   -14.220   -14.788    -0.568     (0)  
   FeSO4+          4.423e-16   3.695e-16   -15.354   -15.432    -0.078     (0)  
   Fe(SO4)2-       4.680e-17   3.910e-17   -16.330   -16.408    -0.078     (0)  
   FeCl2+          3.892e-18   3.252e-18   -17.410   -17.488    -0.078     (0)  
   Fe2(OH)2+4      1.426e-18   9.408e-20   -17.846   -19.027    -1.181     (0)  
   FeCl+2          1.087e-18   5.336e-19   -17.964   -18.273    -0.309     (0)  
   Fe3(OH)4+5      1.371e-22   2.163e-24   -21.863   -23.665    -1.802     (0)  
   FeCl4-          6.923e-26   5.784e-26   -25.160   -25.238    -0.078     (0)  
H(0)          1.058e-25
   H2              5.288e-26   5.340e-26   -25.277   -25.272     0.004     (0)  
K             2.152e-04
   K+              2.091e-04   1.730e-04    -3.680    -3.762    -0.082     (0)  
   KSO4-           6.074e-06   5.075e-06    -5.217    -5.295    -0.078     (0)  
   KCl             1.700e-08   1.700e-08    -7.769    -7.769     0.000     (0)  
   KOH             3.371e-12   3.371e-12   -11.472   -11.472     0.000     (0)  
   KHSO4           4.894e-13   4.894e-13   -12.310   -12.310     0.000     (0)  
Mg            4.617e-03
   Mg+2            3.276e-03   1.791e-03    -2.485    -2.747    -0.262     (0)  
   MgSO4           1.300e-03   1.300e-03    -2.886    -2.886     0.000     (0)  
   MgHCO3+         3.356e-05   2.804e-05    -4.474    -4.552    -0.078     (0)  
   MgCl+           6.602e-06   5.516e-06    -5.180    -5.258    -0.078     (0)  
   MgCO3           4.090e-07   4.090e-07    -6.388    -6.388     0.000     (0)  
   Mg4(OH)4+4      2.768e-23   1.826e-24   -22.558   -23.738    -1.181     (0)  
Mn(2)         4.194e-06
   Mn+2            2.953e-06   1.525e-06    -5.530    -5.817    -0.287     (0)  
   MnSO4           1.193e-06   1.193e-06    -5.924    -5.924     0.000     (0)  
   MnHCO3+         1.920e-08   1.604e-08    -7.717    -7.795    -0.078     (0)  
   MnCO3           1.840e-08   1.840e-08    -7.735    -7.735     0.000     (0)  
   MnCl+           1.078e-08   9.003e-09    -7.968    -8.046    -0.078     (0)  
   MnOH+           2.637e-10   2.203e-10    -9.579    -9.657    -0.078     (0)  
   MnCl3-          4.832e-14   4.037e-14   -13.316   -13.394    -0.078     (0)  
   Mn(OH)2         3.039e-15   3.039e-15   -14.517   -14.517     0.000     (0)  
   Mn2OH+3         1.722e-15   3.600e-16   -14.764   -15.444    -0.680     (0)  
   Mn2(OH)3+       6.221e-16   5.197e-16   -15.206   -15.284    -0.078     (0)  
   Mn(OH)3-        1.918e-20   1.602e-20   -19.717   -19.795    -0.078     (0)  
   Mn(OH)4-2       1.582e-27   7.626e-28   -26.801   -27.118    -0.317     (0)  
Mn(3)         1.123e-27
   Mn+3            1.123e-27   2.347e-28   -26.950   -27.629    -0.680     (0)  
Mn(6)         0.000e+00
   MnO4-2          0.000e+00   0.000e+00   -58.206   -58.523    -0.317     (0)  
Mn(7)         0.000e+00
   MnO4-           0.000e+00   0.000e+00   -64.341   -64.421    -0.080     (0)  
Na            5.883e-03
   Na+             5.723e-03   4.782e-03    -2.242    -2.320    -0.078     (0)  
   NaSO4-          1.448e-04   1.210e-04    -3.839    -3.917    -0.078     (0)  
   NaHCO3          1.213e-05   1.213e-05    -4.916    -4.916     0.000     (0)  
   NaCl            2.927e-06   2.927e-06    -5.534    -5.534     0.000     (0)  
   NaCO3-          7.243e-09   6.052e-09    -8.140    -8.218    -0.078     (0)  
   NaOH            1.646e-11   1.646e-11   -10.784   -10.784     0.000     (0)  
O(0)          0.000e+00
   O2              0.000e+00   0.000e+00   -46.042   -46.038     0.004     (0)  
Ra            3.878e-14
   Ra+2            3.878e-14   1.938e-14   -13.411   -13.713    -0.301     (0)  
S(6)          1.085e-02
   SO4-2           7.946e-03   3.830e-03    -2.100    -2.417    -0.317     (0)  
   CaSO4           1.441e-03   1.441e-03    -2.841    -2.841     0.000     (0)  
   MgSO4           1.300e-03   1.300e-03    -2.886    -2.886     0.000     (0)  
   NaSO4-          1.448e-04   1.210e-04    -3.839    -3.917    -0.078     (0)  
   SrSO4           8.209e-06   8.209e-06    -5.086    -5.086     0.000     (0)  
   KSO4-           6.074e-06   5.075e-06    -5.217    -5.295    -0.078     (0)  
   MnSO4           1.193e-06   1.193e-06    -5.924    -5.924     0.000     (0)  
   FeSO4           1.003e-06   1.003e-06    -5.999    -5.999     0.000     (0)  
   HSO4-           5.718e-08   4.777e-08    -7.243    -7.321    -0.078     (0)  
   UO2SO4          3.909e-11   3.909e-11   -10.408   -10.408     0.000     (0)  
   UO2(SO4)2-2     1.989e-12   9.587e-13   -11.701   -12.018    -0.317     (0)  
   KHSO4           4.894e-13   4.894e-13   -12.310   -12.310     0.000     (0)  
   FeSO4+          4.423e-16   3.695e-16   -15.354   -15.432    -0.078     (0)  
   Fe(SO4)2-       4.680e-17   3.910e-17   -16.330   -16.408    -0.078     (0)  
   H2SO4           1.154e-17   1.154e-17   -16.938   -16.938     0.000     (0)  
   U(SO4)2         7.342e-32   7.342e-32   -31.134   -31.134     0.000     (0)  
   USO4+2          8.539e-33   4.193e-33   -32.069   -32.377    -0.309     (0)  
Sr            2.973e-05
   Sr+2            2.149e-05   1.074e-05    -4.668    -4.969    -0.301     (0)  
   SrSO4           8.209e-06   8.209e-06    -5.086    -5.086     0.000     (0)  
   SrCl+           2.563e-08   2.141e-08    -7.591    -7.669    -0.078     (0)  
   SrCO3           1.579e-09   1.579e-09    -8.802    -8.802     0.000     (0)  
   SrOH+           3.706e-12   3.096e-12   -11.431   -11.509    -0.078     (0)  
U(3)          0.000e+00
   U+3             0.000e+00   0.000e+00   -50.272   -50.952    -0.680     (0)  
U(4)          2.590e-15
   U(OH)4          2.590e-15   2.590e-15   -14.587   -14.587     0.000     (0)  
   U(CO3)4-4       1.412e-26   7.541e-28   -25.850   -27.123    -1.272     (0)  
   UOH+3           1.184e-30   2.476e-31   -29.927   -30.606    -0.680     (0)  
   U(SO4)2         7.342e-32   7.342e-32   -31.134   -31.134     0.000     (0)  
   USO4+2          8.539e-33   4.193e-33   -32.069   -32.377    -0.309     (0)  
   U(CO3)5-6       5.635e-33   7.692e-36   -32.249   -35.114    -2.865     (0)  
   U+4             5.625e-36   3.712e-37   -35.250   -36.430    -1.181     (0)  
   UCl+3           5.076e-37   1.061e-37   -36.294   -36.974    -0.680     (0)  
U(5)          2.125e-14
   UO2+            2.125e-14   1.776e-14   -13.673   -13.751    -0.078     (0)  
   UO2(CO3)3-5     1.928e-24   1.978e-26   -23.715   -25.704    -1.989     (0)  
U(6)          1.852e-07
   UO2(CO3)2-2     1.144e-07   5.515e-08    -6.942    -7.258    -0.317     (0)  
   UO2(CO3)3-4     3.507e-08   1.873e-09    -7.455    -8.727    -1.272     (0)  
   UO2(OH)2        1.811e-08   1.811e-08    -7.742    -7.742     0.000     (0)  
   UO2CO3          1.439e-08   1.439e-08    -7.842    -7.842     0.000     (0)  
   (UO2)2CO3(OH)3-   1.383e-09   1.156e-09    -8.859    -8.937    -0.078     (0)  
   UO2OH+          2.213e-10   1.849e-10    -9.655    -9.733    -0.078     (0)  
   UO2(OH)3-       1.509e-10   1.261e-10    -9.821    -9.899    -0.078     (0)  
   UO2SO4          3.909e-11   3.909e-11   -10.408   -10.408     0.000     (0)  
   UO2+2           2.410e-11   1.183e-11   -10.618   -10.927    -0.309     (0)  
   UO2(SO4)2-2     1.989e-12   9.587e-13   -11.701   -12.018    -0.317     (0)  
   UO2Cl+          7.005e-14   5.852e-14   -13.155   -13.233    -0.078     (0)  
   (UO2)2(OH)2+2   1.024e-14   5.028e-15   -13.990   -14.299    -0.309     (0)  
   (UO2)3(CO3)6-6   1.599e-15   2.183e-18   -14.796   -17.661    -2.865     (0)  
   (UO2)3(OH)5+    4.515e-16   3.772e-16   -15.345   -15.423    -0.078     (0)  
   (UO2)3(OH)7-    3.125e-17   2.611e-17   -16.505   -16.583    -0.078     (0)  
   UO2(OH)4-2      2.291e-17   1.104e-17   -16.640   -16.957    -0.317     (0)  
   UO2Cl2          1.018e-17   1.018e-17   -16.992   -16.992     0.000     (0)  
   (UO2)2OH+3      7.387e-18   1.544e-18   -17.132   -17.811    -0.680     (0)  
   (UO2)3(OH)4+2   3.964e-18   1.947e-18   -17.402   -17.711    -0.309     (0)  
   (UO2)3(OH)5CO2+   6.565e-19   5.485e-19   -18.183   -18.261    -0.078     (0)  
   (UO2)3O(OH)2(HCO3)+   5.297e-19   4.425e-19   -18.276   -18.354    -0.078     (0)  
   (UO2)4(OH)7+    4.655e-19   3.889e-19   -18.332   -18.410    -0.078     (0)  
   (UO2)11(CO3)6(OH)12-2   0.000e+00   0.000e+00   -41.275   -41.592    -0.317     (0)  
   UO2ClO3+        0.000e+00   0.000e+00   -99.719   -99.797    -0.078     (0)  

------------------------------Saturation indices-------------------------------

  Phase               SI** log IAP   log K(285 K,   1 atm)

  (UO2)2Cl3       -45.72    -31.92   13.80  (UO2)2Cl3
  Alstonite        -4.52     -1.94    2.58  BaCa(CO3)2
  Anhydrite        -0.75     -4.95   -4.20  CaSO4
  Antarcticite    -11.46     -7.37    4.09  CaCl2:6H2O
  Aphthitalite    -14.55    -18.44   -3.89  NaK3(SO4)2
  Aragonite        -0.83      1.35    2.18  CaCO3
[...]
   KHSO4           3.358e-15   3.358e-15   -14.474   -14.474     0.000     (0)  
Mg            2.995e-03
   Mg+2            2.885e-03   1.497e-03    -2.540    -2.825    -0.285     (0)  
   MgHCO3+         5.135e-05   4.212e-05    -4.289    -4.376    -0.086     (0)  
   MgCl+           4.291e-05   3.519e-05    -4.367    -4.454    -0.086     (0)  
   MgSO4           1.263e-05   1.263e-05    -4.899    -4.899     0.000     (0)  
   MgCO3           2.702e-06   2.702e-06    -5.568    -5.568     0.000     (0)  
   Mg4(OH)4+4      3.055e-21   1.545e-22   -20.515   -21.811    -1.296     (0)  
Mn(2)         6.912e-06
   Mn+2            6.374e-06   3.092e-06    -5.196    -5.510    -0.314     (0)  
   MnCO3           2.422e-07   2.422e-07    -6.616    -6.616     0.000     (0)  
   MnCl+           1.966e-07   1.612e-07    -6.706    -6.793    -0.086     (0)  
   MnHCO3+         7.089e-08   5.815e-08    -7.149    -7.235    -0.086     (0)  
   MnSO4           2.650e-08   2.650e-08    -7.577    -7.577     0.000     (0)  
   MnOH+           1.976e-09   1.621e-09    -8.704    -8.790    -0.086     (0)  
   MnCl3-          4.651e-11   3.815e-11   -10.332   -10.418    -0.086     (0)  
   Mn2(OH)3+       1.244e-13   1.020e-13   -12.905   -12.991    -0.086     (0)  
   Mn(OH)2         8.111e-14   8.111e-14   -13.091   -13.091     0.000     (0)  
   Mn2OH+3         3.004e-14   5.369e-15   -13.522   -14.270    -0.748     (0)  
   Mn(OH)3-        1.891e-18   1.551e-18   -17.723   -17.809    -0.086     (0)  
   Mn(OH)4-2       6.000e-25   2.678e-25   -24.222   -24.572    -0.350     (0)  
Mn(3)         3.201e-33
   Mn+3            3.201e-33   5.721e-34   -32.495   -33.243    -0.748     (0)  
Mn(6)         0.000e+00
   MnO4-2          0.000e+00   0.000e+00   -75.705   -76.055    -0.350     (0)  
Mn(7)         0.000e+00
   MnO4-           0.000e+00   0.000e+00   -87.661   -87.750    -0.089     (0)  
Na            3.243e-02
   Na+             3.219e-02   2.640e-02    -1.492    -1.578    -0.086     (0)  
   NaCl            1.305e-04   1.305e-04    -3.884    -3.884     0.000     (0)  
   NaHCO3          1.082e-04   1.082e-04    -3.966    -3.966     0.000     (0)  
   NaSO4-          8.251e-06   6.768e-06    -5.083    -5.170    -0.086     (0)  
   NaCO3-          2.631e-07   2.158e-07    -6.580    -6.666    -0.086     (0)  
   NaOH            4.974e-10   4.974e-10    -9.303    -9.303     0.000     (0)  
O(0)          0.000e+00
   O2              0.000e+00   0.000e+00   -66.626   -66.621     0.005     (0)  
Ra            1.047e-13
   Ra+2            1.047e-13   4.881e-14   -12.980   -13.311    -0.331     (0)  
S(6)          1.190e-04
   SO4-2           8.691e-05   3.880e-05    -4.061    -4.411    -0.350     (0)  
   MgSO4           1.263e-05   1.263e-05    -4.899    -4.899     0.000     (0)  
   CaSO4           1.086e-05   1.086e-05    -4.964    -4.964     0.000     (0)  
   NaSO4-          8.251e-06   6.768e-06    -5.083    -5.170    -0.086     (0)  
   SrSO4           1.411e-07   1.411e-07    -6.850    -6.850     0.000     (0)  
   KSO4-           1.266e-07   1.039e-07    -6.897    -6.983    -0.086     (0)  
   FeSO4           4.178e-08   4.178e-08    -7.379    -7.379     0.000     (0)  
   MnSO4           2.650e-08   2.650e-08    -7.577    -7.577     0.000     (0)  
   HSO4-           1.879e-10   1.541e-10    -9.726    -9.812    -0.086     (0)  
   KHSO4           3.358e-15   3.358e-15   -14.474   -14.474     0.000     (0)  
   UO2SO4          5.731e-18   5.731e-18   -17.242   -17.242     0.000     (0)  
   H2SO4           8.870e-21   8.870e-21   -20.052   -20.052     0.000     (0)  
   UO2(SO4)2-2     3.641e-21   1.625e-21   -20.439   -20.789    -0.350     (0)  
   FeSO4+          2.167e-23   1.777e-23   -22.664   -22.750    -0.086     (0)  
   Fe(SO4)2-       1.912e-26   1.568e-26   -25.719   -25.805    -0.086     (0)  
   USO4+2          5.077e-30   2.318e-30   -29.294   -29.635    -0.340     (0)  
   U(SO4)2         4.852e-31   4.852e-31   -30.314   -30.314     0.000     (0)  
Sr            3.961e-05
   Sr+2            3.908e-05   1.823e-05    -4.408    -4.739    -0.331     (0)  
   SrCl+           3.622e-07   2.971e-07    -6.441    -6.527    -0.086     (0)  
   SrSO4           1.411e-07   1.411e-07    -6.850    -6.850     0.000     (0)  
   SrCO3           2.272e-08   2.272e-08    -7.644    -7.644     0.000     (0)  
   SrOH+           2.324e-11   1.906e-11   -10.634   -10.720    -0.086     (0)  
U(3)          1.018e-39
   U+3             1.018e-39   1.819e-40   -38.992   -39.740    -0.748     (0)  
U(4)          4.121e-08
   U(OH)4          4.121e-08   4.121e-08    -7.385    -7.385     0.000     (0)  
   U(CO3)4-4       1.764e-18   6.911e-20   -17.753   -19.160    -1.407     (0)  
   U(CO3)5-6       1.028e-23   6.975e-27   -22.988   -26.156    -3.168     (0)  
   UOH+3           3.721e-25   6.651e-26   -24.429   -25.177    -0.748     (0)  
   USO4+2          5.077e-30   2.318e-30   -29.294   -29.635    -0.340     (0)  
   U(SO4)2         4.852e-31   4.852e-31   -30.314   -30.314     0.000     (0)  
   U+4             3.786e-31   1.915e-32   -30.422   -31.718    -1.296     (0)  
   UCl+3           2.046e-31   3.658e-32   -30.689   -31.437    -0.748     (0)  
U(5)          3.789e-13
   UO2+            3.789e-13   3.108e-13   -12.422   -12.508    -0.086     (0)  
   UO2(CO3)3-5     1.500e-20   9.471e-23   -19.824   -22.024    -2.200     (0)  
U(6)          2.726e-10
   UO2(CO3)3-4     1.731e-10   6.781e-12    -9.762   -11.169    -1.407     (0)  
   UO2(CO3)2-2     9.500e-11   4.241e-11   -10.022   -10.373    -0.350     (0)  
   UO2(OH)2        3.008e-12   3.008e-12   -11.522   -11.522     0.000     (0)  
   UO2CO3          1.360e-12   1.360e-12   -11.867   -11.867     0.000     (0)  
   UO2(OH)3-       9.257e-14   7.593e-14   -13.034   -13.120    -0.086     (0)  
   UO2OH+          1.435e-14   1.177e-14   -13.843   -13.929    -0.086     (0)  
   UO2+2           3.270e-16   1.493e-16   -15.485   -15.826    -0.340     (0)  
   (UO2)2CO3(OH)3-   6.952e-17   5.702e-17   -16.158   -16.244    -0.086     (0)  
   UO2Cl+          7.390e-18   6.062e-18   -17.131   -17.217    -0.086     (0)  
   UO2SO4          5.731e-18   5.731e-18   -17.242   -17.242     0.000     (0)  
   UO2(OH)4-2      5.405e-20   2.413e-20   -19.267   -19.617    -0.350     (0)  
   UO2Cl2          8.619e-21   8.619e-21   -20.065   -20.065     0.000     (0)  
   UO2(SO4)2-2     3.641e-21   1.625e-21   -20.439   -20.789    -0.350     (0)  
   (UO2)2(OH)2+2   3.112e-23   1.421e-23   -22.507   -22.847    -0.340     (0)  
   (UO2)3(CO3)6-6   5.833e-25   3.957e-28   -24.234   -27.403    -3.168     (0)  
   (UO2)2OH+3      4.990e-27   8.918e-28   -26.302   -27.050    -0.748     (0)  
   (UO2)3(OH)5+    1.248e-27   1.023e-27   -26.904   -26.990    -0.086     (0)  
   (UO2)3(OH)7-    5.286e-28   4.336e-28   -27.277   -27.363    -0.086     (0)  
   (UO2)3(OH)4+2   1.483e-30   6.772e-31   -29.829   -30.169    -0.340     (0)  
   (UO2)3(OH)5CO2+   4.159e-31   3.412e-31   -30.381   -30.467    -0.086     (0)  
   (UO2)3O(OH)2(HCO3)+   3.358e-31   2.755e-31   -30.474   -30.560    -0.086     (0)  
   (UO2)4(OH)7+    9.935e-35   8.150e-35   -34.003   -34.089    -0.086     (0)  
   (UO2)11(CO3)6(OH)12-2   0.000e+00   0.000e+00   -83.541   -83.891    -0.350     (0)  
   UO2ClO3+        0.000e+00   0.000e+00  -134.332  -134.418    -0.086     (0)  

------------------------------Saturation indices-------------------------------

  Phase               SI** log IAP   log K(290 K,   1 atm)

  (UO2)2Cl3       -46.25    -32.91   13.34  (UO2)2Cl3
  Alstonite        -2.12      0.46    2.58  BaCa(CO3)2
  Anhydrite        -2.84     -7.10   -4.26  CaSO4
  Antarcticite     -9.83     -5.74    4.09  CaCl2:6H2O
  Aphthitalite    -16.91    -20.80   -3.89  NaK3(SO4)2
  Aragonite        -0.08      2.02    2.09  CaCO3
  Arcanite         -9.39    -11.34   -1.95  K2SO4
  Artinite         -6.58     13.67   20.25  Mg2CO3(OH)2:3H2O
  Ba             -103.40     41.68  145.08  Ba
  Ba(OH)2:8H2O    -16.41      8.36   24.77  Ba(OH)2:8H2O
  Ba2U2O7         -31.27      6.33   37.60  Ba2U2O7
  Ba3UO6          -73.13     23.89   97.02  Ba3UO6
  BaCl2           -11.60     -9.30    2.29  BaCl2
  BaCl2:2H2O       -9.44     -9.31    0.13  BaCl2:2H2O
  BaCl2:H2O       -10.12     -9.31    0.81  BaCl2:H2O
  BaMnO4          -72.22    -82.31  -10.09  BaMnO4
  BaO             -40.70      8.37   49.07  BaO
  Barite           -0.53    -10.67  -10.13  BaSO4
  Barytocalcite    -2.28      0.46    2.74  BaCa(CO3)2
  Bassanite        -3.48     -7.10   -3.62  CaSO4:0.5H2O
  BaU2O7          -16.93      5.95   22.89  BaU2O7
  BaUO4           -11.67      7.16   18.83  BaUO4
  Birnessite     -140.93   -226.48  -85.55  Mn8O14:5H2O
  Bischofite      -10.27     -5.88    4.39  MgCl2:6H2O
  Bixbyite        -22.56    -22.63   -0.06  Mn2O3
  Bloedite        -12.33    -14.81   -2.48  Na2Mg(SO4)2:4H2O
  Brucite          -5.02     11.79   16.81  Mg(OH)2
  Burkeite        -23.08    -13.59    9.49  Na6CO3(SO4)2
  C                -9.28     56.70   65.99  C
  C(g)           -130.27     56.70  186.97  C
  Ca              -98.46     45.24  143.70  Ca
  Ca(g)          -124.54     45.24  169.78  Ca
  Ca2Cl2(OH)2:H2O -20.10      6.19   26.29  Ca2Cl2(OH)2:H2O
  Ca4Cl2(OH)6:13H2O -38.28     30.05   68.33  Ca4Cl2(OH)6:13H2O
  Calcite           0.07      2.02    1.95  CaCO3
  Carnallite      -15.14    -10.87    4.27  KMgCl3:6H2O
  CaSO4:0.5H2O(beta)  -3.66     -7.10   -3.44  CaSO4:0.5H2O
  CaUO4            -5.83     10.73   16.56  CaUO4
  Celestite        -3.46     -9.15   -5.69  SrSO4
  Chloromagnesite -28.44     -5.88   22.56  MgCl2
  Cl2(g)          -54.23    -50.98    3.25  Cl2
  CO2(g)           -2.14     -9.92   -7.78  CO2
  Dolomite          1.13      3.89    2.76  CaMg(CO3)2
  Dolomite-dis     -0.46      3.89    4.36  CaMg(CO3)2
  Dolomite-ord      1.14      3.89    2.75  CaMg(CO3)2
  Epsomite         -5.28     -7.24   -1.96  MgSO4:7H2O
  Fe              -18.01     42.76   60.77  Fe
  Fe(OH)2          -4.89      9.45   14.35  Fe(OH)2
  Fe(OH)3          -4.31      1.73    6.04  Fe(OH)3
  Fe2(SO4)3       -57.85    -53.63    4.23  Fe2(SO4)3
  FeO              -4.57      9.45   14.02  FeO
  Ferrite-Ca       -7.35     15.40   22.74  CaFe2O4
  Ferrite-Dicalcium -31.71     27.33   59.04  Ca2Fe2O5
  Ferrite-Mg       -7.08     15.26   22.34  MgFe2O4
  FeSO4           -12.53     -9.58    2.95  FeSO4
  Gaylussite       -7.61      3.56   11.16  CaNa2(CO3)2:5H2O
  Glauberite       -9.20    -14.67   -5.47  Na2Ca(SO4)2
  Goethite          0.91      1.73    0.82  FeOOH
  Gypsum           -2.58     -7.10   -4.52  CaSO4:2H2O
  H2(g)           -11.00    -14.08   -3.08  H2
  H2O(g)           -1.79     -0.00    1.79  H2O
  Halite           -4.65     -3.10    1.55  NaCl
  Hausmannite     -24.93    -13.52   11.41  Mn3O4
  HCl(g)          -15.49     -8.84    6.65  HCl
  Hematite          2.78      3.47    0.69  Fe2O3
  Hexahydrite      -5.51     -7.24   -1.73  MgSO4:6H2O
  Huntite          -3.38      7.65   11.03  CaMg3(CO3)4
  Hydromagnesite  -12.86     19.30   32.17  Mg5(CO3)4(OH)2:4H2O
  Hydrophilite    -17.87     -5.74   12.13  CaCl2
  Ice              -0.11     -0.00    0.11  H2O
  Jarosite        -20.50    -29.02   -8.52  KFe3(SO4)2(OH)6
  Jarosite-Na     -21.68    -27.13   -5.45  NaFe3(SO4)2(OH)6
  K               -52.32     20.50   72.82  K
  K(g)            -63.34     20.50   83.84  K
  K2CO3:1.5H2O    -15.61     -2.23   13.38  K2CO3:1.5H2O
  K2O             -78.35      7.69   86.04  K2O
  K2UO4           -28.21      6.48   34.70  K2UO4
  K3H(SO4)2       -22.90    -26.53   -3.62  K3H(SO4)2
  K8H4(CO3)6:3H2O -56.45    -28.74   27.71  K8H4(CO3)6:3H2O
  Kainite         -11.92    -12.23   -0.31  KMgClSO4:3H2O
  Kalicinite       -6.36     -6.07    0.28  KHCO3
  Kieserite        -6.97     -7.24   -0.27  MgSO4:H2O
  KMgCl3          -32.73    -10.87   21.86  KMgCl3
  KMgCl3:2H2O     -25.18    -10.87   14.32  KMgCl3:2H2O
  KNaCO3:6H2O     -10.60     -0.34   10.26  KNaCO3:6H2O
  Lansfordite      -2.97      1.88    4.84  MgCO3:5H2O
  Lawrencite      -17.67     -8.22    9.46  FeCl2
  Leonite         -14.47    -18.58   -4.11  K2Mg(SO4)2:4H2O
  Lime            -21.55     11.93   33.48  CaO
  Magnesite        -0.61      1.88    2.48  MgCO3
  Magnetite         1.48     12.92   11.44  Fe3O4
  Manganite       -11.15    -11.31   -0.16  MnO(OH)
  Manganosite      -9.38      9.11   18.49  MnO
  Melanterite      -7.14     -9.58   -2.45  FeSO4:7H2O
  Mercallite      -13.75    -15.19   -1.44  KHSO4
  Mg              -80.92     45.11  126.03  Mg
  Mg(g)          -101.34     45.11  146.44  Mg
  Mg1.25SO4(OH)0.5:0.5H2O  -9.94     -4.29    5.66  Mg1.25SO4(OH)0.5:0.5H2O
  Mg1.5SO4(OH)    -11.14     -1.34    9.80  Mg1.5SO4(OH)
  MgCl2:2H2O      -19.05     -5.88   13.17  MgCl2:2H2O
  MgCl2:4H2O      -13.39     -5.88    7.52  MgCl2:4H2O
  MgCl2:H2O       -22.51     -5.88   16.64  MgCl2:H2O
  MgOHCl          -13.49      2.96   16.45  MgOHCl
  MgSO4           -12.49     -7.24    5.26  MgSO4
  MgUO4           -13.34     10.59   23.93  MgUO4
  Mirabilite       -6.06     -7.57   -1.52  Na2SO4:10H2O
  Misenite        -91.38   -102.46  -11.08  K8H6(SO4)7
  Mn              -42.87     42.42   85.29  Mn
  Mn(OH)2(am)      -6.66      9.11   15.77  Mn(OH)2
  Mn(OH)3         -17.66    -11.31    6.34  Mn(OH)3
  MnCl2:2H2O      -12.72     -8.56    4.16  MnCl2:2H2O
  MnCl2:4H2O      -11.37     -8.56    2.80  MnCl2:4H2O
  MnCl2:H2O       -14.34     -8.56    5.78  MnCl2:H2O
  MnO2(gamma)     -24.66    -40.78  -16.13  MnO2
  MnSO4           -12.84     -9.92    2.92  MnSO4
  Molysite        -38.96    -24.77   14.19  FeCl3
  Monohydrocalcite  -0.76      2.02    2.77  CaCO3:H2O
  Na              -46.77     22.39   69.16  Na
  Na(g)           -60.77     22.39   83.15  Na
  Na2CO3           -9.81      1.55   11.35  Na2CO3
  Na2CO3:7H2O      -8.28      1.54    9.82  Na2CO3:7H2O
  Na2O            -57.61     11.46   69.07  Na2O
  Na2U2O7         -14.35      9.05   23.40  Na2U2O7
  Na2UO4(alpha)   -20.58     10.26   30.84  Na2UO4
  Na3H(SO4)2      -19.98    -20.87   -0.89  Na3H(SO4)2
  Na3UO4          -45.63     12.00   57.63  Na3UO4
  Na4Ca(SO4)3:2H2O -16.34    -22.24   -5.89  Na4Ca(SO4)3:2H2O
  Na4UO2(CO3)3    -12.07     -8.03    4.04  Na4UO2(CO3)3
  NaFeO2          -13.19      7.46   20.65  NaFeO2
  Nahcolite        -3.97     -4.19   -0.21  NaHCO3
  Natron           -7.82      1.54    9.36  Na2CO3:10H2O
  NaUO3            -8.06      0.53    8.60  NaUO3
  Nesquehonite     -3.65      1.88    5.53  MgCO3:3H2O
  O2(g)           -63.79    -66.62   -2.83  O2
  Oxychloride-Mg  -11.08     14.75   25.83  Mg2Cl(OH)3:4H2O
  Pentahydrite     -5.85     -7.24   -1.39  MgSO4:5H2O
  Periclase       -10.24     11.79   22.03  MgO
  Picromerite     -14.14    -18.58   -4.44  K2Mg(SO4)2:6H2O
  Pirssonite       -7.76      3.56   11.32  Na2Ca(CO3)2:2H2O
  Polyhalite      -18.46    -32.77  -14.31  K2MgCa2(SO4)4:2H2O
  Portlandite     -11.22     11.93   23.15  Ca(OH)2
  Pyrolusite      -22.73    -40.78  -18.05  MnO2
  Ra             -110.55     34.62  145.16  Ra
  RaCl2:2H2O      -15.43    -16.36   -0.93  RaCl2:2H2O
  RaSO4            -7.06    -17.72  -10.66  RaSO4
  Rhodochrosite    -0.69     -0.81   -0.12  MnCO3
  Rutherfordine    -7.10    -11.12   -4.03  UO2CO3
  Scacchite       -17.65     -8.56    9.09  MnCl2
  Schoepite        -6.28     -1.21    5.07  UO3:2H2O
  Schoepite-dehy(.393)  -8.26     -1.21    7.05  UO3:.393H2O
  Schoepite-dehy(.648)  -7.72     -1.21    6.52  UO3:.648H2O
  Schoepite-dehy(.85)  -6.57     -1.21    5.37  UO3:.85H2O
  Schoepite-dehy(.9)  -6.49     -1.21    5.28  UO3:.9H2O
  Schoepite-dehy(1.0)  -6.59     -1.21    5.38  UO3:H2O
  Siderite         -0.40     -0.47   -0.06  FeCO3
  Sr             -102.49     43.19  145.68  Sr
  Sr(OH)2         -18.37      9.88   28.25  Sr(OH)2
  SrCl2           -15.95     -7.79    8.16  SrCl2
  SrCl2:2H2O      -11.17     -7.79    3.37  SrCl2:2H2O
  SrCl2:6H2O       -9.17     -7.79    1.38  SrCl2:6H2O
  SrCl2:H2O       -12.68     -7.79    4.89  SrCl2:H2O
  SrO             -33.15      9.88   43.03  SrO
  SrUO4(alpha)    -11.20      8.67   19.87  SrUO4
  Starkeyite       -6.24     -7.24   -1.00  MgSO4:4H2O
  Strontianite      0.27     -0.04   -0.31  SrCO3
  Sylvite          -5.74     -4.99    0.75  KCl
  Syngenite       -10.84    -18.44   -7.60  K2Ca(SO4)2:H2O
  Tachyhydrite    -34.64    -17.50   17.14  Mg2CaCl6:12H2O
  Thenardite       -7.22     -7.57   -0.34  Na2SO4
  Thermonatrite    -9.52      1.55   11.07  Na2CO3:H2O
  Todorokite     -112.73   -158.56  -45.82  Mn7O12:3H2O
  Trona-K         -18.00     -6.41   11.59  K2NaH(CO3)2:2H2O
  U              -120.09     98.72  218.82  U
  U(CO3)2         -30.63    -22.31    8.32  U(CO3)2
  U(g)           -208.16     98.72  306.88  U
  U(OH)2SO4       -18.44    -21.51   -3.07  U(OH)2SO4
  U(SO4)2         -29.47    -40.54  -11.07  U(SO4)2
  U(SO4)2:4H2O    -29.32    -40.54  -11.22  U(SO4)2:4H2O
  U(SO4)2:8H2O    -28.14    -40.54  -12.40  U(SO4)2:8H2O
  U2C3           -234.00    234.42  468.43  U2C3
  U2Cl10(g)      -184.22    -98.75   85.48  U2Cl10
  U2Cl8(g)       -161.54    -75.64   85.90  U2Cl8
  U2O2Cl5         -72.24    -51.85   20.39  U2O2Cl5
  U5O12Cl         -16.08    -34.82  -18.74  U5O12Cl
  UC             -111.59     88.86  200.45  UC
  UC1.94(alpha)  -122.41    142.16  264.57  UC1.94
  UCl(g)         -175.60     52.59  228.19  UCl
  UCl2(g)        -141.54     47.74  189.29  UCl2
  UCl3            -57.88    -44.32   13.57  UCl3
  UCl3(g)        -105.03    -44.32   60.72  UCl3
  UCl4            -60.87    -37.82   23.05  UCl4
  UCl4(g)         -86.25    -37.82   48.43  UCl4
  UCl5            -87.78    -49.37   38.41  UCl5
  UCl5(g)        -105.74    -49.37   56.36  UCl5
  UCl6           -113.52    -54.22   59.30  UCl6
  UCl6(g)        -119.76    -54.22   65.55  UCl6
  UH3(beta)      -123.30     82.12  205.42  UH3
  UO(g)          -152.46     65.41  217.87  UO
  UO2(am)          -2.59     -2.48    0.11  UO2
  UO2(g)          -97.35     32.10  129.46  UO2
  UO2(OH)2(beta)   -6.42     -1.21    5.22  UO2(OH)2
  UO2.25            0.82     -3.84   -4.66  UO2.25
  UO2.25(beta)      0.74     -3.84   -4.58  UO2.25
  UO2.3333(beta)    0.33    -27.16  -27.49  (UO2.3333)2
  UO2.6667         -5.55    -49.37  -43.83  (UO2.6667)2
  UO2Cl           -13.60    -14.03   -0.43  UO2Cl
  UO2Cl2          -31.50    -18.88   12.63  UO2Cl2
  UO2Cl2(g)       -68.61    -18.88   49.73  UO2Cl2
  UO2Cl2:3H2O     -24.71    -18.88    5.83  UO2Cl2:3H2O
  UO2Cl2:H2O      -27.53    -18.88    8.65  UO2Cl2:H2O
  UO2ClOH:2H2O    -12.51    -10.04    2.46  UO2ClOH:2H2O
  UO2CO3           -7.08    -11.12   -4.04  UO2CO3
  UO2SO4          -22.56    -20.24    2.32  UO2SO4
  UO2SO4:2.5H2O   -18.91    -20.24   -1.33  UO2SO4:2.5H2O
  UO2SO4:3.5H2O   -18.88    -20.24   -1.36  UO2SO4:3.5H2O
  UO2SO4:3H2O     -18.99    -20.24   -1.25  UO2SO4:3H2O
  UO2SO4:H2O      -14.36    -20.24   -5.88  UO2SO4:H2O
  UO3(alpha)      -10.26     -1.21    9.05  UO3
  UO3(beta)        -9.92     -1.21    8.71  UO3
  UO3(g)          -74.54     -1.21   73.33  UO3
  UO3(gamma)       -9.30     -1.21    8.09  UO3
  UO3:.9H2O(alpha)  -6.49     -1.21    5.28  UO3:.9H2O
  UO3:2H2O         -6.28     -1.21    5.07  UO3:2H2O
  UOCl            -37.53    -26.65   10.88  UOCl
  UOCl2           -26.24    -20.15    6.09  UOCl2
  UOCl3           -44.76    -31.70   13.06  UOCl3
  Uraninite         1.99     -2.48   -4.46  UO2
  Witherite         1.54     -1.55   -3.09  BaCO3
  Wustite          -4.75      8.13   12.89  Fe.947O

**For a gas, SI = log10(fugacity). Fugacity = pressure * phi / 1 atm.
  For ideal gases, phi = 1.

------------------
End of simulation.
------------------

-------------------------------------
Reading input data for simulation 15.
-------------------------------------

---------------------------------
End of Run after 1.26571 Seconds.
---------------------------------

