   Input file: /Users/aibao/Documents/Project/MiningReg/openminer/report/2026-05-30-phreeqc-waste-rock-weathering-rewrite/models/02_kinetic_reaction_path.phr
  Output file: /Users/aibao/Documents/Project/MiningReg/openminer/report/2026-05-30-phreeqc-waste-rock-weathering-rewrite/models/02_kinetic_reaction_path.out
Database file: /Users/aibao/.local/phreeqc/phreeqc-3.5.0-14000/database/phreeqc.dat

------------------
Reading data base.
------------------

	SOLUTION_MASTER_SPECIES
	SOLUTION_SPECIES
	PHASES
	EXCHANGE_MASTER_SPECIES
	EXCHANGE_SPECIES
	SURFACE_MASTER_SPECIES
	SURFACE_SPECIES
	RATES
	END
------------------------------------
Reading input data for simulation 1.
------------------------------------

	TITLE Kinetic PHREEQC reaction-path benchmarks for HCT interpretation
	SELECTED_OUTPUT 1
	    file /Users/aibao/Documents/Project/MiningReg/openminer/report/2026-05-30-phreeqc-waste-rock-weathering-rewrite/models/02_kinetic_reaction_path.sel
	    reset false
	    simulation true
	    state true
	    solution true
	    time true
	    ph true
	    pe true
	    ionic_strength true
	    totals S(6) Ca Mg K Al Si C Fe
	    kinetic_reactants Pyrite_Acid Anorthite_Kin Kmica_Kin Chlorite_Kin Biotite_Kin Dolomite_Kin
	RATES
	Pyrite_Acid
	start
	10 k = PARM(1)
	20 moles = k * M * TIME
	30 IF (moles > M) THEN moles = M
	40 SAVE moles
	end
	Anorthite_Kin
	start
	10 k = PARM(1)
	20 alpha = PARM(2)
	30 n = PARM(3)
	40 H = ACT("H+")
	50 hfac = (H / 1e-4)^n
	60 IF (hfac < 0.05) THEN hfac = 0.05
	70 IF (hfac > 20) THEN hfac = 20
	80 keff = k * EXP(-alpha * TOTAL_TIME)
	90 moles = keff * M * TIME * hfac
	100 IF (moles > M) THEN moles = M
	110 SAVE moles
	end
	Kmica_Kin
	start
	10 k = PARM(1)
	20 alpha = PARM(2)
	30 n = PARM(3)
	40 H = ACT("H+")
	50 hfac = (H / 1e-4)^n
	60 IF (hfac < 0.05) THEN hfac = 0.05
	70 IF (hfac > 20) THEN hfac = 20
	80 keff = k * EXP(-alpha * TOTAL_TIME)
	90 moles = keff * M * TIME * hfac
	100 IF (moles > M) THEN moles = M
	110 SAVE moles
	end
	Chlorite_Kin
	start
	10 k = PARM(1)
	20 alpha = PARM(2)
	30 n = PARM(3)
	40 H = ACT("H+")
	50 hfac = (H / 1e-4)^n
	60 IF (hfac < 0.05) THEN hfac = 0.05
	70 IF (hfac > 20) THEN hfac = 20
	80 keff = k * EXP(-alpha * TOTAL_TIME)
	90 moles = keff * M * TIME * hfac
	100 IF (moles > M) THEN moles = M
	110 SAVE moles
	end
	Biotite_Kin
	start
	10 k = PARM(1)
	20 alpha = PARM(2)
	30 n = PARM(3)
	40 H = ACT("H+")
	50 hfac = (H / 1e-4)^n
	60 IF (hfac < 0.05) THEN hfac = 0.05
	70 IF (hfac > 20) THEN hfac = 20
	80 keff = k * EXP(-alpha * TOTAL_TIME)
	90 moles = keff * M * TIME * hfac
	100 IF (moles > M) THEN moles = M
	110 SAVE moles
	end
	Dolomite_Kin
	start
	10 k = PARM(1)
	20 alpha = PARM(2)
	30 n = PARM(3)
	40 H = ACT("H+")
	50 hfac = (H / 1e-4)^n
	60 IF (hfac < 0.05) THEN hfac = 0.05
	70 IF (hfac > 20) THEN hfac = 20
	80 keff = k * EXP(-alpha * TOTAL_TIME)
	90 moles = keff * M * TIME * hfac
	100 IF (moles > M) THEN moles = M
	110 SAVE moles
	end
	SOLUTION 1 acid_only_accessible_pyrite
	    temp 25
	    pH 7
	    pe 8
	    units mmol/kgw
	    O(0) 0.26
	    Na 0.01 charge
	KINETICS 1
	Pyrite_Acid
	    formula H2SO4 2
	    m0 0.012
	    parms 2.0e-9
	    step_divide 100
	    steps 90720000 in 150 steps
	END
-----
TITLE
-----

 Kinetic PHREEQC reaction-path benchmarks for HCT interpretation

-------------------------------------------
Beginning of initial solution calculations.
-------------------------------------------

Initial solution 1.	acid_only_accessible_pyrite

-----------------------------Solution composition------------------------------

	Elements           Molality       Moles

	Na                1.216e-09   1.216e-09  Charge balance
	O(0)              2.600e-04   2.600e-04

----------------------------Description of solution----------------------------

                                       pH  =   7.000    
                                       pe  =   8.000    
      Specific Conductance (µS/cm,  25°C)  = 0
                          Density (g/cmł)  =   0.99704
                               Volume (L)  =   1.00297
                        Activity of water  =   1.000
                 Ionic strength (mol/kgw)  =   1.013e-07
                       Mass of water (kg)  =   1.000e+00
                 Total alkalinity (eq/kg)  =   1.216e-09
                         Temperature (°C)  =  25.00
                  Electrical balance (eq)  =   2.510e-19
 Percent error, 100*(Cat-|An|)/(Cat+|An|)  =   0.00
                               Iterations  =   6
                                  Total H  = 1.110124e+02
                                  Total O  = 5.550648e+01

---------------------------------Redox couples---------------------------------

	Redox couple             pe  Eh (volts)

	O(-2)/O(0)          13.5485      0.8015

----------------------------Distribution of species----------------------------

                                               Log       Log       Log    mole V
   Species          Molality    Activity  Molality  Activity     Gamma   cmł/mol

   OH-             1.013e-07   1.012e-07    -6.995    -6.995    -0.000     -4.14
   H+              1.000e-07   1.000e-07    -7.000    -7.000    -0.000      0.00
   H2O             5.551e+01   1.000e+00     1.744    -0.000     0.000     18.07
H(0)          1.416e-33
   H2              7.079e-34   7.079e-34   -33.150   -33.150     0.000     28.61
Na            1.216e-09
   Na+             1.216e-09   1.216e-09    -8.915    -8.915    -0.000     -1.52
   NaOH            1.230e-26   1.230e-26   -25.910   -25.910     0.000     (0)  
O(0)          2.600e-04
   O2              1.300e-04   1.300e-04    -3.886    -3.886     0.000     30.40

------------------------------Saturation indices-------------------------------

  Phase               SI** log IAP   log K(298 K,   1 atm)

  H2(g)           -30.05    -33.15   -3.10  H2
  H2O(g)           -1.50     -0.00    1.50  H2O
  O2(g)            -0.99     -3.89   -2.89  O2

**For a gas, SI = log10(fugacity). Fugacity = pressure * phi / 1 atm.
  For ideal gases, phi = 1.

-----------------------------------------
Beginning of batch-reaction calculations.
-----------------------------------------

Reaction step 1.

Using solution 1.	acid_only_accessible_pyrite
Using kinetics 1.	

Kinetics 1.	

	Time step: 604800 seconds

	Rate name       Delta Moles Total Moles   Reactant        Coefficient

	Pyrite_Acid      -1.451e-05   1.199e-02   H2SO4                     2

-----------------------------Solution composition------------------------------

	Elements           Molality       Moles

	Na                1.216e-09   1.216e-09
	S                 2.901e-05   2.901e-05

----------------------------Description of solution----------------------------

                                       pH  =   4.242      Charge balance
                                       pe  =  16.306      Adjusted to redox equilibrium
      Specific Conductance (µS/cm,  25°C)  = 24
                          Density (g/cmł)  =   0.99705
                               Volume (L)  =   1.00297
                        Activity of water  =   1.000
                 Ionic strength (mol/kgw)  =   8.673e-05
                       Mass of water (kg)  =   1.000e+00
                 Total alkalinity (eq/kg)  =  -5.802e-05
                         Temperature (°C)  =  25.00
                  Electrical balance (eq)  =  -4.410e-15
 Percent error, 100*(Cat-|An|)/(Cat+|An|)  =  -0.00
                               Iterations  = 191
                                  Total H  = 1.110125e+02
                                  Total O  = 5.550659e+01

----------------------------Distribution of species----------------------------

                                               Log       Log       Log    mole V
   Species          Molality    Activity  Molality  Activity     Gamma   cmł/mol

   H+              5.787e-05   5.726e-05    -4.238    -4.242    -0.005      0.00
   OH-             1.787e-10   1.768e-10    -9.748    -9.753    -0.005     -4.13
   H2O             5.551e+01   1.000e+00     1.744    -0.000     0.000     18.07
H(0)          0.000e+00
   H2              0.000e+00   0.000e+00   -44.247   -44.247     0.000     28.61
Na            1.216e-09
   Na+             1.216e-09   1.203e-09    -8.915    -8.920    -0.005     -1.51
   NaSO4-          1.684e-13   1.666e-13   -12.774   -12.778    -0.005     13.56
   NaOH            2.126e-29   2.126e-29   -28.672   -28.672     0.000     (0)  
O(0)          2.600e-04
   O2              1.300e-04   1.300e-04    -3.886    -3.886     0.000     30.40
S(-2)         0.000e+00
   H2S             0.000e+00   0.000e+00  -136.839  -136.839     0.000     37.16
   HS-             0.000e+00   0.000e+00  -139.534  -139.539    -0.005     20.58
   S-2             0.000e+00   0.000e+00  -148.196  -148.214    -0.019     (0)  
S(6)          2.901e-05
   SO4-2           2.886e-05   2.764e-05    -4.540    -4.558    -0.019     14.43
   HSO4-           1.555e-07   1.539e-07    -6.808    -6.813    -0.005     40.26
   NaSO4-          1.684e-13   1.666e-13   -12.774   -12.778    -0.005     13.56

------------------------------Saturation indices-------------------------------

  Phase               SI** log IAP   log K(298 K,   1 atm)

  H2(g)           -41.15    -44.25   -3.10  H2
  H2O(g)           -1.50     -0.00    1.50  H2O
  H2S(g)         -135.79   -143.78   -7.99  H2S
  O2(g)            -0.99     -3.89   -2.89  O2
  Sulfur         -100.62    -95.74    4.88  S

**For a gas, SI = log10(fugacity). Fugacity = pressure * phi / 1 atm.
  For ideal gases, phi = 1.

Reaction step 2.

Using solution 1.	acid_only_accessible_pyrite
Using kinetics 1.	

Kinetics 1.	

	Time step: 1.2096e+06 seconds

	Rate name       Delta Moles Total Moles   Reactant        Coefficient

	Pyrite_Acid      -2.900e-05   1.197e-02   H2SO4                     2

-----------------------------Solution composition------------------------------

	Elements           Molality       Moles

	Na                1.216e-09   1.216e-09
	S                 5.799e-05   5.799e-05

----------------------------Description of solution----------------------------

                                       pH  =   3.944      Charge balance
                                       pe  =  16.604      Adjusted to redox equilibrium
      Specific Conductance (µS/cm,  25°C)  = 49
                          Density (g/cmł)  =   0.99705
                               Volume (L)  =   1.00297
                        Activity of water  =   1.000
                 Ionic strength (mol/kgw)  =   1.728e-04
                       Mass of water (kg)  =   1.000e+00
                 Total alkalinity (eq/kg)  =  -1.160e-04
                         Temperature (°C)  =  25.00
                  Electrical balance (eq)  =  -5.552e-14
 Percent error, 100*(Cat-|An|)/(Cat+|An|)  =  -0.00
                               Iterations  = 183
                                  Total H  = 1.110125e+02
                                  Total O  = 5.550671e+01

----------------------------Distribution of species----------------------------

                                               Log       Log       Log    mole V
   Species          Molality    Activity  Molality  Activity     Gamma   cmł/mol

   H+              1.154e-04   1.137e-04    -3.938    -3.944    -0.006      0.00
   OH-             9.041e-11   8.904e-11   -10.044   -10.050    -0.007     -4.13
   H2O             5.551e+01   1.000e+00     1.744    -0.000     0.000     18.07
H(0)          0.000e+00
   H2              0.000e+00   0.000e+00   -44.247   -44.247     0.000     28.61
Na            1.216e-09
   Na+             1.216e-09   1.197e-09    -8.915    -8.922    -0.007     -1.50
   NaSO4-          3.291e-13   3.242e-13   -12.483   -12.489    -0.007     13.59
   NaOH            1.066e-29   1.066e-29   -28.972   -28.972     0.000     (0)  
O(0)          2.600e-04
   O2              1.300e-04   1.300e-04    -3.886    -3.886     0.000     30.40
S(-2)         0.000e+00
   H2S             0.000e+00   0.000e+00  -135.952  -135.952     0.000     37.16
   HS-             0.000e+00   0.000e+00  -138.943  -138.950    -0.007     20.59
   S-2             0.000e+00   0.000e+00  -147.897  -147.923    -0.026     (0)  
S(6)          5.799e-05
   SO4-2           5.738e-05   5.402e-05    -4.241    -4.267    -0.026     14.44
   HSO4-           6.061e-07   5.970e-07    -6.217    -6.224    -0.007     40.26
   NaSO4-          3.291e-13   3.242e-13   -12.483   -12.489    -0.007     13.59

------------------------------Saturation indices-------------------------------

  Phase               SI** log IAP   log K(298 K,   1 atm)

  H2(g)           -41.15    -44.25   -3.10  H2
  H2O(g)           -1.50     -0.00    1.50  H2O
  H2S(g)         -134.90   -142.89   -7.99  H2S
  O2(g)            -0.99     -3.89   -2.89  O2
  Sulfur          -99.74    -94.86    4.88  S

**For a gas, SI = log10(fugacity). Fugacity = pressure * phi / 1 atm.
  For ideal gases, phi = 1.

Reaction step 3.

Using solution 1.	acid_only_accessible_pyrite
Using kinetics 1.	

Kinetics 1.	

	Time step: 1.8144e+06 seconds

	Rate name       Delta Moles Total Moles   Reactant        Coefficient

	Pyrite_Acid      -4.347e-05   1.196e-02   H2SO4                     2

-----------------------------Solution composition------------------------------

	Elements           Molality       Moles

	Na                1.216e-09   1.216e-09
	S                 8.693e-05   8.693e-05

----------------------------Description of solution----------------------------

                                       pH  =   3.771      Charge balance
                                       pe  =  16.778      Adjusted to redox equilibrium
      Specific Conductance (µS/cm,  25°C)  = 73
                          Density (g/cmł)  =   0.99705
                               Volume (L)  =   1.00297
                        Activity of water  =   1.000
                 Ionic strength (mol/kgw)  =   2.581e-04
                       Mass of water (kg)  =   1.000e+00
                 Total alkalinity (eq/kg)  =  -1.739e-04
                         Temperature (°C)  =  25.00
                  Electrical balance (eq)  =  -1.171e-13
 Percent error, 100*(Cat-|An|)/(Cat+|An|)  =  -0.00
                               Iterations  = 176
                                  Total H  = 1.110126e+02
                                  Total O  = 5.550682e+01

----------------------------Distribution of species----------------------------

                                               Log       Log       Log    mole V
   Species          Molality    Activity  Molality  Activity     Gamma   cmł/mol

   H+              1.725e-04   1.695e-04    -3.763    -3.771    -0.008      0.00
   OH-             6.085e-11   5.973e-11   -10.216   -10.224    -0.008     -4.12
   H2O             5.551e+01   1.000e+00     1.744    -0.000     0.000     18.07
H(0)          0.000e+00
   H2              0.000e+00   0.000e+00   -44.247   -44.247     0.000     28.61
Na            1.216e-09
   Na+             1.216e-09   1.193e-09    -8.915    -8.923    -0.008     -1.50
   NaSO4-          4.845e-13   4.757e-13   -12.315   -12.323    -0.008     13.61
   NaOH            7.128e-30   7.128e-30   -29.147   -29.147     0.000     (0)  
O(0)          2.600e-04
   O2              1.300e-04   1.300e-04    -3.886    -3.886     0.000     30.40
S(-2)         0.000e+00
   H2S             0.000e+00   0.000e+00  -135.438  -135.438     0.000     37.16
   HS-             0.000e+00   0.000e+00  -138.600  -138.608    -0.008     20.59
   S-2             0.000e+00   0.000e+00  -147.723  -147.755    -0.032     (0)  
S(6)          8.693e-05
   SO4-2           8.560e-05   7.953e-05    -4.068    -4.099    -0.032     14.45
   HSO4-           1.335e-06   1.310e-06    -5.875    -5.883    -0.008     40.26
   NaSO4-          4.845e-13   4.757e-13   -12.315   -12.323    -0.008     13.61

------------------------------Saturation indices-------------------------------

  Phase               SI** log IAP   log K(298 K,   1 atm)

  H2(g)           -41.15    -44.25   -3.10  H2
  H2O(g)           -1.50     -0.00    1.50  H2O
  H2S(g)         -134.39   -142.38   -7.99  H2S
  O2(g)            -0.99     -3.89   -2.89  O2
  Sulfur          -99.22    -94.34    4.88  S

**For a gas, SI = log10(fugacity). Fugacity = pressure * phi / 1 atm.
  For ideal gases, phi = 1.

Reaction step 4.

Using solution 1.	acid_only_accessible_pyrite
Using kinetics 1.	

Kinetics 1.	

	Time step: 2.4192e+06 seconds

	Rate name       Delta Moles Total Moles   Reactant        Coefficient

	Pyrite_Acid      -5.792e-05   1.194e-02   H2SO4                     2

-----------------------------Solution composition------------------------------

	Elements           Molality       Moles

	Na                1.216e-09   1.216e-09
	S                 1.158e-04   1.158e-04

----------------------------Description of solution----------------------------

                                       pH  =   3.648      Charge balance
                                       pe  =  16.900      Adjusted to redox equilibrium
      Specific Conductance (µS/cm,  25°C)  = 97
                          Density (g/cmł)  =   0.99705
                               Volume (L)  =   1.00297
                        Activity of water  =   1.000
                 Ionic strength (mol/kgw)  =   3.429e-04
                       Mass of water (kg)  =   1.000e+00
                 Total alkalinity (eq/kg)  =  -2.317e-04
                         Temperature (°C)  =  25.00
                  Electrical balance (eq)  =  -2.294e-13
 Percent error, 100*(Cat-|An|)/(Cat+|An|)  =  -0.00
                               Iterations  = 177
                                  Total H  = 1.110127e+02
                                  Total O  = 5.550694e+01

----------------------------Distribution of species----------------------------

                                               Log       Log       Log    mole V
   Species          Molality    Activity  Molality  Activity     Gamma   cmł/mol

   H+              2.294e-04   2.247e-04    -3.639    -3.648    -0.009      0.00
   OH-             4.602e-11   4.505e-11   -10.337   -10.346    -0.009     -4.12
   H2O             5.551e+01   1.000e+00     1.744    -0.000     0.000     18.07
H(0)          0.000e+00
   H2              0.000e+00   0.000e+00   -44.247   -44.247     0.000     28.61
Na            1.216e-09
   Na+             1.215e-09   1.190e-09    -8.915    -8.924    -0.009     -1.50
   NaSO4-          6.354e-13   6.222e-13   -12.197   -12.206    -0.009     13.63
   NaOH            5.361e-30   5.361e-30   -29.271   -29.271     0.000     (0)  
O(0)          2.600e-04
   O2              1.300e-04   1.300e-04    -3.886    -3.886     0.000     30.40
S(-2)         0.000e+00
   H2S             0.000e+00   0.000e+00  -135.075  -135.075     0.000     37.16
   HS-             0.000e+00   0.000e+00  -138.359  -138.368    -0.009     20.59
   S-2             0.000e+00   0.000e+00  -147.601  -147.638    -0.037     (0)  
S(6)          1.158e-04
   SO4-2           1.135e-04   1.043e-04    -3.945    -3.982    -0.037     14.46
   HSO4-           2.328e-06   2.279e-06    -5.633    -5.642    -0.009     40.26
   NaSO4-          6.354e-13   6.222e-13   -12.197   -12.206    -0.009     13.63

------------------------------Saturation indices-------------------------------

  Phase               SI** log IAP   log K(298 K,   1 atm)

  H2(g)           -41.15    -44.25   -3.10  H2
  H2O(g)           -1.50     -0.00    1.50  H2O
  H2S(g)         -134.02   -142.02   -7.99  H2S
  O2(g)            -0.99     -3.89   -2.89  O2
  Sulfur          -98.86    -93.98    4.88  S

**For a gas, SI = log10(fugacity). Fugacity = pressure * phi / 1 atm.
  For ideal gases, phi = 1.

Reaction step 5.

Using solution 1.	acid_only_accessible_pyrite
Using kinetics 1.	

Kinetics 1.	

	Time step: 3.024e+06 seconds

	Rate name       Delta Moles Total Moles   Reactant        Coefficient

	Pyrite_Acid      -7.236e-05   1.193e-02   H2SO4                     2

-----------------------------Solution composition------------------------------

	Elements           Molality       Moles

	Na                1.216e-09   1.216e-09
	S                 1.447e-04   1.447e-04

----------------------------Description of solution----------------------------

                                       pH  =   3.554      Charge balance
                                       pe  =  16.995      Adjusted to redox equilibrium
      Specific Conductance (µS/cm,  25°C)  = 121
                          Density (g/cmł)  =   0.99706
                               Volume (L)  =   1.00297
                        Activity of water  =   1.000
                 Ionic strength (mol/kgw)  =   4.270e-04
                       Mass of water (kg)  =   1.000e+00
                 Total alkalinity (eq/kg)  =  -2.894e-04
                         Temperature (°C)  =  25.00
                  Electrical balance (eq)  =  -3.867e-13
 Percent error, 100*(Cat-|An|)/(Cat+|An|)  =  -0.00
                               Iterations  = 179
                                  Total H  = 1.110127e+02
                                  Total O  = 5.550706e+01

----------------------------Distribution of species----------------------------

                                               Log       Log       Log    mole V
   Species          Molality    Activity  Molality  Activity     Gamma   cmł/mol

   H+              2.859e-04   2.794e-04    -3.544    -3.554    -0.010      0.00
   OH-             3.710e-11   3.623e-11   -10.431   -10.441    -0.010     -4.12
   H2O             5.551e+01   1.000e+00     1.744    -0.000     0.000     18.07
H(0)          0.000e+00
   H2              0.000e+00   0.000e+00   -44.247   -44.247     0.000     28.61
Na            1.216e-09
   Na+             1.215e-09   1.187e-09    -8.915    -8.926    -0.010     -1.49
   NaSO4-          7.825e-13   7.644e-13   -12.107   -12.117    -0.010     13.65
   NaOH            4.300e-30   4.300e-30   -29.367   -29.367     0.000     (0)  
O(0)          2.600e-04
   O2              1.300e-04   1.300e-04    -3.886    -3.886     0.000     30.40
S(-2)         0.000e+00
   H2S             0.000e+00   0.000e+00  -134.795  -134.795     0.000     37.16
   HS-             0.000e+00   0.000e+00  -138.173  -138.183    -0.010     20.59
   S-2             0.000e+00   0.000e+00  -147.506  -147.547    -0.041     (0)  
S(6)          1.447e-04
   SO4-2           1.411e-04   1.285e-04    -3.850    -3.891    -0.041     14.47
   HSO4-           3.574e-06   3.490e-06    -5.447    -5.457    -0.010     40.27
   NaSO4-          7.825e-13   7.644e-13   -12.107   -12.117    -0.010     13.65

------------------------------Saturation indices-------------------------------

  Phase               SI** log IAP   log K(298 K,   1 atm)

  H2(g)           -41.15    -44.25   -3.10  H2
  H2O(g)           -1.50     -0.00    1.50  H2O
  H2S(g)         -133.74   -141.74   -7.99  H2S
  O2(g)            -0.99     -3.89   -2.89  O2
  Sulfur          -98.58    -93.70    4.88  S

**For a gas, SI = log10(fugacity). Fugacity = pressure * phi / 1 atm.
  For ideal gases, phi = 1.

Reaction step 6.

Using solution 1.	acid_only_accessible_pyrite
Using kinetics 1.	

Kinetics 1.	

	Time step: 3.6288e+06 seconds

	Rate name       Delta Moles Total Moles   Reactant        Coefficient

	Pyrite_Acid      -8.678e-05   1.191e-02   H2SO4                     2

-----------------------------Solution composition------------------------------

	Elements           Molality       Moles

	Na                1.216e-09   1.216e-09
	S                 1.736e-04   1.736e-04

----------------------------Description of solution----------------------------

                                       pH  =   3.477      Charge balance
                                       pe  =  17.072      Adjusted to redox equilibrium
      Specific Conductance (µS/cm,  25°C)  = 145
                          Density (g/cmł)  =   0.99706
                               Volume (L)  =   1.00297
                        Activity of water  =   1.000
                 Ionic strength (mol/kgw)  =   5.105e-04
                       Mass of water (kg)  =   1.000e+00
                 Total alkalinity (eq/kg)  =  -3.471e-04
                         Temperature (°C)  =  25.00
                  Electrical balance (eq)  =  -5.909e-13
 Percent error, 100*(Cat-|An|)/(Cat+|An|)  =  -0.00
                               Iterations  = 179
                                  Total H  = 1.110128e+02
                                  Total O  = 5.550717e+01

----------------------------Distribution of species----------------------------

                                               Log       Log       Log    mole V
   Species          Molality    Activity  Molality  Activity     Gamma   cmł/mol

   H+              3.420e-04   3.336e-04    -3.466    -3.477    -0.011      0.00
   OH-             3.113e-11   3.034e-11   -10.507   -10.518    -0.011     -4.12
   H2O             5.551e+01   1.000e+00     1.744    -0.000     0.000     18.07
H(0)          0.000e+00
   H2              0.000e+00   0.000e+00   -44.247   -44.247     0.000     28.61
Na            1.216e-09
   Na+             1.215e-09   1.184e-09    -8.915    -8.927    -0.011     -1.49
   NaSO4-          9.261e-13   9.028e-13   -12.033   -12.044    -0.011     13.66
   NaOH            3.593e-30   3.593e-30   -29.445   -29.445     0.000     (0)  
O(0)          2.600e-04
   O2              1.300e-04   1.300e-04    -3.886    -3.886     0.000     30.40
S(-2)         0.000e+00
   H2S             0.000e+00   0.000e+00  -134.568  -134.568     0.000     37.16
   HS-             0.000e+00   0.000e+00  -138.021  -138.033    -0.011     20.59
   S-2             0.000e+00   0.000e+00  -147.429  -147.474    -0.044     (0)  
S(6)          1.736e-04
   SO4-2           1.685e-04   1.521e-04    -3.773    -3.818    -0.044     14.48
   HSO4-           5.062e-06   4.934e-06    -5.296    -5.307    -0.011     40.27
   NaSO4-          9.261e-13   9.028e-13   -12.033   -12.044    -0.011     13.66

------------------------------Saturation indices-------------------------------

  Phase               SI** log IAP   log K(298 K,   1 atm)

  H2(g)           -41.15    -44.25   -3.10  H2
  H2O(g)           -1.50     -0.00    1.50  H2O
  H2S(g)         -133.52   -141.51   -7.99  H2S
  O2(g)            -0.99     -3.89   -2.89  O2
  Sulfur          -98.35    -93.47    4.88  S

**For a gas, SI = log10(fugacity). Fugacity = pressure * phi / 1 atm.
  For ideal gases, phi = 1.

Reaction step 7.

Using solution 1.	acid_only_accessible_pyrite
Using kinetics 1.	

Kinetics 1.	

	Time step: 4.2336e+06 seconds

	Rate name       Delta Moles Total Moles   Reactant        Coefficient

	Pyrite_Acid      -1.012e-04   1.190e-02   H2SO4                     2

-----------------------------Solution composition------------------------------

	Elements           Molality       Moles

	Na                1.216e-09   1.216e-09
	S                 2.024e-04   2.024e-04

----------------------------Description of solution----------------------------

                                       pH  =   3.412      Charge balance
                                       pe  =  17.137      Adjusted to redox equilibrium
      Specific Conductance (µS/cm,  25°C)  = 168
                          Density (g/cmł)  =   0.99706
                               Volume (L)  =   1.00297
                        Activity of water  =   1.000
                 Ionic strength (mol/kgw)  =   5.935e-04
                       Mass of water (kg)  =   1.000e+00
                 Total alkalinity (eq/kg)  =  -4.047e-04
                         Temperature (°C)  =  25.00
                  Electrical balance (eq)  =  -8.423e-13
 Percent error, 100*(Cat-|An|)/(Cat+|An|)  =  -0.00
                               Iterations  = 179
                                  Total H  = 1.110128e+02
                                  Total O  = 5.550729e+01

----------------------------Distribution of species----------------------------

                                               Log       Log       Log    mole V
   Species          Molality    Activity  Molality  Activity     Gamma   cmł/mol

   H+              3.979e-04   3.874e-04    -3.400    -3.412    -0.012      0.00
   OH-             2.686e-11   2.612e-11   -10.571   -10.583    -0.012     -4.11
   H2O             5.551e+01   1.000e+00     1.744    -0.000     0.000     18.07
H(0)          0.000e+00
   H2              0.000e+00   0.000e+00   -44.247   -44.247     0.000     28.61
Na            1.216e-09
   Na+             1.215e-09   1.182e-09    -8.915    -8.927    -0.012     -1.49
   NaSO4-          1.067e-12   1.038e-12   -11.972   -11.984    -0.012     13.68
   NaOH            3.087e-30   3.088e-30   -29.510   -29.510     0.000     (0)  
O(0)          2.600e-04
   O2              1.300e-04   1.300e-04    -3.886    -3.886     0.000     30.40
S(-2)         0.000e+00
   H2S             0.000e+00   0.000e+00  -134.376  -134.376     0.000     37.16
   HS-             0.000e+00   0.000e+00  -137.894  -137.906    -0.012     20.60
   S-2             0.000e+00   0.000e+00  -147.365  -147.413    -0.048     (0)  
S(6)          2.024e-04
   SO4-2           1.956e-04   1.752e-04    -3.709    -3.757    -0.048     14.48
   HSO4-           6.784e-06   6.599e-06    -5.168    -5.181    -0.012     40.27
   NaSO4-          1.067e-12   1.038e-12   -11.972   -11.984    -0.012     13.68

------------------------------Saturation indices-------------------------------

  Phase               SI** log IAP   log K(298 K,   1 atm)

  H2(g)           -41.15    -44.25   -3.10  H2
  H2O(g)           -1.50     -0.00    1.50  H2O
  H2S(g)         -133.33   -141.32   -7.99  H2S
  O2(g)            -0.99     -3.89   -2.89  O2
  Sulfur          -98.16    -93.28    4.88  S

**For a gas, SI = log10(fugacity). Fugacity = pressure * phi / 1 atm.
  For ideal gases, phi = 1.

Reaction step 8.

Using solution 1.	acid_only_accessible_pyrite
Using kinetics 1.	

Kinetics 1.	

	Time step: 4.8384e+06 seconds

	Rate name       Delta Moles Total Moles   Reactant        Coefficient

	Pyrite_Acid      -1.156e-04   1.188e-02   H2SO4                     2

-----------------------------Solution composition------------------------------

	Elements           Molality       Moles

	Na                1.216e-09   1.216e-09
	S                 2.311e-04   2.311e-04

----------------------------Description of solution----------------------------

                                       pH  =   3.356      Charge balance
                                       pe  =  17.193      Adjusted to redox equilibrium
      Specific Conductance (µS/cm,  25°C)  = 192
                          Density (g/cmł)  =   0.99706
                               Volume (L)  =   1.00297
                        Activity of water  =   1.000
                 Ionic strength (mol/kgw)  =   6.759e-04
                       Mass of water (kg)  =   1.000e+00
                 Total alkalinity (eq/kg)  =  -4.622e-04
                         Temperature (°C)  =  25.00
                  Electrical balance (eq)  =  -1.141e-12
 Percent error, 100*(Cat-|An|)/(Cat+|An|)  =  -0.00
                               Iterations  = 181
                                  Total H  = 1.110129e+02
                                  Total O  = 5.550740e+01

----------------------------Distribution of species----------------------------

                                               Log       Log       Log    mole V
   Species          Molality    Activity  Molality  Activity     Gamma   cmł/mol

   H+              4.535e-04   4.408e-04    -3.343    -3.356    -0.012      0.00
   OH-             2.365e-11   2.296e-11   -10.626   -10.639    -0.013     -4.11
   H2O             5.551e+01   1.000e+00     1.744    -0.000     0.000     18.07
H(0)          0.000e+00
   H2              0.000e+00   0.000e+00   -44.247   -44.247     0.000     28.61
Na            1.216e-09
   Na+             1.215e-09   1.180e-09    -8.915    -8.928    -0.013     -1.49
   NaSO4-          1.204e-12   1.170e-12   -11.919   -11.932    -0.013     13.69
   NaOH            2.708e-30   2.709e-30   -29.567   -29.567     0.000     (0)  
O(0)          2.600e-04
   O2              1.300e-04   1.300e-04    -3.886    -3.886     0.000     30.40
S(-2)         0.000e+00
   H2S             0.000e+00   0.000e+00  -134.212  -134.212     0.000     37.16
   HS-             0.000e+00   0.000e+00  -137.785  -137.798    -0.013     20.60
   S-2             0.000e+00   0.000e+00  -147.309  -147.360    -0.051     (0)  
S(6)          2.311e-04
   SO4-2           2.224e-04   1.978e-04    -3.653    -3.704    -0.051     14.49
   HSO4-           8.732e-06   8.478e-06    -5.059    -5.072    -0.013     40.27
   NaSO4-          1.204e-12   1.170e-12   -11.919   -11.932    -0.013     13.69

------------------------------Saturation indices-------------------------------

  Phase               SI** log IAP   log K(298 K,   1 atm)

  H2(g)           -41.15    -44.25   -3.10  H2
  H2O(g)           -1.50     -0.00    1.50  H2O
  H2S(g)         -133.16   -141.15   -7.99  H2S
  O2(g)            -0.99     -3.89   -2.89  O2
  Sulfur          -98.00    -93.11    4.88  S

**For a gas, SI = log10(fugacity). Fugacity = pressure * phi / 1 atm.
  For ideal gases, phi = 1.

Reaction step 9.

Using solution 1.	acid_only_accessible_pyrite
Using kinetics 1.	

Kinetics 1.	

	Time step: 5.4432e+06 seconds

	Rate name       Delta Moles Total Moles   Reactant        Coefficient

	Pyrite_Acid      -1.299e-04   1.187e-02   H2SO4                     2

-----------------------------Solution composition------------------------------

	Elements           Molality       Moles

	Na                1.216e-09   1.216e-09
	S                 2.599e-04   2.599e-04

----------------------------Description of solution----------------------------

                                       pH  =   3.306      Charge balance
                                       pe  =  17.242      Adjusted to redox equilibrium
      Specific Conductance (µS/cm,  25°C)  = 215
                          Density (g/cmł)  =   0.99706
                               Volume (L)  =   1.00297
                        Activity of water  =   1.000
                 Ionic strength (mol/kgw)  =   7.578e-04
                       Mass of water (kg)  =   1.000e+00
                 Total alkalinity (eq/kg)  =  -5.197e-04
                         Temperature (°C)  =  25.00
                  Electrical balance (eq)  =  -1.486e-12
 Percent error, 100*(Cat-|An|)/(Cat+|An|)  =  -0.00
                               Iterations  = 180
                                  Total H  = 1.110130e+02
                                  Total O  = 5.550752e+01

----------------------------Distribution of species----------------------------

                                               Log       Log       Log    mole V
   Species          Molality    Activity  Molality  Activity     Gamma   cmł/mol

   H+              5.088e-04   4.938e-04    -3.293    -3.306    -0.013      0.00
   OH-             2.115e-11   2.050e-11   -10.675   -10.688    -0.014     -4.11
   H2O             5.551e+01   1.000e+00     1.744    -0.000     0.000     18.07
H(0)          0.000e+00
   H2              0.000e+00   0.000e+00   -44.247   -44.247     0.000     28.61
Na            1.216e-09
   Na+             1.215e-09   1.178e-09    -8.916    -8.929    -0.013     -1.48
   NaSO4-          1.339e-12   1.298e-12   -11.873   -11.887    -0.013     13.70
   NaOH            2.413e-30   2.414e-30   -29.617   -29.617     0.000     (0)  
O(0)          2.600e-04
   O2              1.300e-04   1.300e-04    -3.886    -3.886     0.000     30.40
S(-2)         0.000e+00
   H2S             0.000e+00   0.000e+00  -134.067  -134.067     0.000     37.16
   HS-             0.000e+00   0.000e+00  -137.688  -137.702    -0.014     20.60
   S-2             0.000e+00   0.000e+00  -147.260  -147.314    -0.054     (0)  
S(6)          2.599e-04
   SO4-2           2.490e-04   2.200e-04    -3.604    -3.658    -0.054     14.50
   HSO4-           1.090e-05   1.056e-05    -4.963    -4.976    -0.014     40.27
   NaSO4-          1.339e-12   1.298e-12   -11.873   -11.887    -0.013     13.70

------------------------------Saturation indices-------------------------------

  Phase               SI** log IAP   log K(298 K,   1 atm)

  H2(g)           -41.15    -44.25   -3.10  H2
  H2O(g)           -1.50     -0.00    1.50  H2O
  H2S(g)         -133.02   -141.01   -7.99  H2S
  O2(g)            -0.99     -3.89   -2.89  O2
  Sulfur          -97.85    -92.97    4.88  S

**For a gas, SI = log10(fugacity). Fugacity = pressure * phi / 1 atm.
  For ideal gases, phi = 1.

Reaction step 10.

Using solution 1.	acid_only_accessible_pyrite
Using kinetics 1.	

Kinetics 1.	

	Time step: 6.048e+06 seconds

	Rate name       Delta Moles Total Moles   Reactant        Coefficient

	Pyrite_Acid      -1.443e-04   1.186e-02   H2SO4                     2

-----------------------------Solution composition------------------------------

	Elements           Molality       Moles

	Na                1.216e-09   1.216e-09
	S                 2.886e-04   2.886e-04

----------------------------Description of solution----------------------------

                                       pH  =   3.262      Charge balance
                                       pe  =  17.286      Adjusted to redox equilibrium
      Specific Conductance (µS/cm,  25°C)  = 238
                          Density (g/cmł)  =   0.99707
                               Volume (L)  =   1.00297
                        Activity of water  =   1.000
                 Ionic strength (mol/kgw)  =   8.391e-04
                       Mass of water (kg)  =   1.000e+00
                 Total alkalinity (eq/kg)  =  -5.771e-04
                         Temperature (°C)  =  25.00
                  Electrical balance (eq)  =  -1.879e-12
 Percent error, 100*(Cat-|An|)/(Cat+|An|)  =  -0.00
                               Iterations  = 179
                                  Total H  = 1.110130e+02
                                  Total O  = 5.550763e+01

----------------------------Distribution of species----------------------------

                                               Log       Log       Log    mole V
   Species          Molality    Activity  Molality  Activity     Gamma   cmł/mol

   H+              5.638e-04   5.464e-04    -3.249    -3.262    -0.014      0.00
   OH-             1.914e-11   1.852e-11   -10.718   -10.732    -0.014     -4.11
   H2O             5.551e+01   1.000e+00     1.744    -0.000     0.000     18.07
H(0)          0.000e+00
   H2              0.000e+00   0.000e+00   -44.247   -44.247     0.000     28.61
Na            1.216e-09
   Na+             1.215e-09   1.176e-09    -8.916    -8.930    -0.014     -1.48
   NaSO4-          1.471e-12   1.424e-12   -11.832   -11.846    -0.014     13.71
   NaOH            2.177e-30   2.178e-30   -29.662   -29.662     0.000     (0)  
O(0)          2.600e-04
   O2              1.300e-04   1.300e-04    -3.886    -3.886     0.000     30.40
S(-2)         0.000e+00
   H2S             0.000e+00   0.000e+00  -133.938  -133.938     0.000     37.16
   HS-             0.000e+00   0.000e+00  -137.603  -137.617    -0.014     20.60
   S-2             0.000e+00   0.000e+00  -147.216  -147.273    -0.056     (0)  
S(6)          2.886e-04
   SO4-2           2.753e-04   2.417e-04    -3.560    -3.617    -0.056     14.50
   HSO4-           1.327e-05   1.284e-05    -4.877    -4.891    -0.014     40.27
   NaSO4-          1.471e-12   1.424e-12   -11.832   -11.846    -0.014     13.71

------------------------------Saturation indices-------------------------------

  Phase               SI** log IAP   log K(298 K,   1 atm)

  H2(g)           -41.15    -44.25   -3.10  H2
  H2O(g)           -1.50     -0.00    1.50  H2O
  H2S(g)         -132.89   -140.88   -7.99  H2S
  O2(g)            -0.99     -3.89   -2.89  O2
  Sulfur          -97.72    -92.84    4.88  S

**For a gas, SI = log10(fugacity). Fugacity = pressure * phi / 1 atm.
  For ideal gases, phi = 1.

Reaction step 11.

Using solution 1.	acid_only_accessible_pyrite
Using kinetics 1.	

Kinetics 1.	

	Time step: 6.6528e+06 seconds

	Rate name       Delta Moles Total Moles   Reactant        Coefficient

	Pyrite_Acid      -1.586e-04   1.184e-02   H2SO4                     2

-----------------------------Solution composition------------------------------

	Elements           Molality       Moles

	Na                1.216e-09   1.216e-09
	S                 3.172e-04   3.172e-04

----------------------------Description of solution----------------------------

                                       pH  =   3.223      Charge balance
                                       pe  =  17.326      Adjusted to redox equilibrium
      Specific Conductance (µS/cm,  25°C)  = 261
                          Density (g/cmł)  =   0.99707
                               Volume (L)  =   1.00297
                        Activity of water  =   1.000
                 Ionic strength (mol/kgw)  =   9.200e-04
                       Mass of water (kg)  =   1.000e+00
                 Total alkalinity (eq/kg)  =  -6.344e-04
                         Temperature (°C)  =  25.00
                  Electrical balance (eq)  =  -2.317e-12
 Percent error, 100*(Cat-|An|)/(Cat+|An|)  =  -0.00
                               Iterations  = 180
                                  Total H  = 1.110131e+02
                                  Total O  = 5.550775e+01

----------------------------Distribution of species----------------------------

                                               Log       Log       Log    mole V
   Species          Molality    Activity  Molality  Activity     Gamma   cmł/mol

   H+              6.186e-04   5.987e-04    -3.209    -3.223    -0.014      0.00
   OH-             1.750e-11   1.691e-11   -10.757   -10.772    -0.015     -4.11
   H2O             5.551e+01   1.000e+00     1.744    -0.000     0.000     18.07
H(0)          0.000e+00
   H2              0.000e+00   0.000e+00   -44.247   -44.247     0.000     28.61
Na            1.216e-09
   Na+             1.214e-09   1.174e-09    -8.916    -8.930    -0.015     -1.48
   NaSO4-          1.601e-12   1.548e-12   -11.796   -11.810    -0.015     13.73
   NaOH            1.984e-30   1.984e-30   -29.702   -29.702     0.000     (0)  
O(0)          2.600e-04
   O2              1.300e-04   1.300e-04    -3.886    -3.886     0.000     30.40
S(-2)         0.000e+00
   H2S             0.000e+00   0.000e+00  -133.822  -133.822     0.000     37.16
   HS-             0.000e+00   0.000e+00  -137.526  -137.541    -0.015     20.60
   S-2             0.000e+00   0.000e+00  -147.177  -147.236    -0.059     (0)  
S(6)          3.172e-04
   SO4-2           3.014e-04   2.631e-04    -3.521    -3.580    -0.059     14.51
   HSO4-           1.585e-05   1.531e-05    -4.800    -4.815    -0.015     40.28
   NaSO4-          1.601e-12   1.548e-12   -11.796   -11.810    -0.015     13.73

------------------------------Saturation indices-------------------------------

  Phase               SI** log IAP   log K(298 K,   1 atm)

  H2(g)           -41.15    -44.25   -3.10  H2
  H2O(g)           -1.50     -0.00    1.50  H2O
  H2S(g)         -132.77   -140.76   -7.99  H2S
  O2(g)            -0.99     -3.89   -2.89  O2
  Sulfur          -97.61    -92.72    4.88  S

**For a gas, SI = log10(fugacity). Fugacity = pressure * phi / 1 atm.
  For ideal gases, phi = 1.

Reaction step 12.

Using solution 1.	acid_only_accessible_pyrite
Using kinetics 1.	

Kinetics 1.	

	Time step: 7.2576e+06 seconds

	Rate name       Delta Moles Total Moles   Reactant        Coefficient

	Pyrite_Acid      -1.729e-04   1.183e-02   H2SO4                     2

-----------------------------Solution composition------------------------------

	Elements           Molality       Moles

	Na                1.216e-09   1.216e-09
	S                 3.458e-04   3.458e-04

----------------------------Description of solution----------------------------

                                       pH  =   3.187      Charge balance
                                       pe  =  17.362      Adjusted to redox equilibrium
      Specific Conductance (µS/cm,  25°C)  = 284
                          Density (g/cmł)  =   0.99707
                               Volume (L)  =   1.00298
                        Activity of water  =   1.000
                 Ionic strength (mol/kgw)  =   1.000e-03
                       Mass of water (kg)  =   1.000e+00
                 Total alkalinity (eq/kg)  =  -6.917e-04
                         Temperature (°C)  =  25.00
                  Electrical balance (eq)  =  -3.618e-14
 Percent error, 100*(Cat-|An|)/(Cat+|An|)  =  -0.00
                               Iterations  = 184
                                  Total H  = 1.110131e+02
                                  Total O  = 5.550786e+01

----------------------------Distribution of species----------------------------

                                               Log       Log       Log    mole V
   Species          Molality    Activity  Molality  Activity     Gamma   cmł/mol

   H+              6.731e-04   6.506e-04    -3.172    -3.187    -0.015      0.00
   OH-             1.612e-11   1.556e-11   -10.793   -10.808    -0.016     -4.11
   H2O             5.551e+01   1.000e+00     1.744    -0.000     0.000     18.07
H(0)          0.000e+00
   H2              0.000e+00   0.000e+00   -44.247   -44.247     0.000     28.61
Na            1.216e-09
   Na+             1.214e-09   1.172e-09    -8.916    -8.931    -0.015     -1.48
   NaSO4-          1.729e-12   1.669e-12   -11.762   -11.778    -0.015     13.74
   NaOH            1.823e-30   1.823e-30   -29.739   -29.739     0.000     (0)  
O(0)          2.600e-04
   O2              1.300e-04   1.300e-04    -3.886    -3.886     0.000     30.40
S(-2)         0.000e+00
   H2S             0.000e+00   0.000e+00  -133.716  -133.716     0.000     37.16
   HS-             0.000e+00   0.000e+00  -137.456  -137.471    -0.016     20.60
   S-2             0.000e+00   0.000e+00  -147.141  -147.203    -0.061     (0)  
S(6)          3.458e-04
   SO4-2           3.272e-04   2.841e-04    -3.485    -3.547    -0.061     14.51
   HSO4-           1.862e-05   1.797e-05    -4.730    -4.745    -0.015     40.28
   NaSO4-          1.729e-12   1.669e-12   -11.762   -11.778    -0.015     13.74

------------------------------Saturation indices-------------------------------

  Phase               SI** log IAP   log K(298 K,   1 atm)

  H2(g)           -41.15    -44.25   -3.10  H2
  H2O(g)           -1.50     -0.00    1.50  H2O
  H2S(g)         -132.67   -140.66   -7.99  H2S
  O2(g)            -0.99     -3.89   -2.89  O2
  Sulfur          -97.50    -92.62    4.88  S

**For a gas, SI = log10(fugacity). Fugacity = pressure * phi / 1 atm.
  For ideal gases, phi = 1.

Reaction step 13.

Using solution 1.	acid_only_accessible_pyrite
Using kinetics 1.	

Kinetics 1.	

	Time step: 7.8624e+06 seconds

	Rate name       Delta Moles Total Moles   Reactant        Coefficient

	Pyrite_Acid      -1.872e-04   1.181e-02   H2SO4                     2

-----------------------------Solution composition------------------------------

	Elements           Molality       Moles

	Na                1.216e-09   1.216e-09
	S                 3.744e-04   3.744e-04

----------------------------Description of solution----------------------------

                                       pH  =   3.154      Charge balance
                                       pe  =  17.395      Adjusted to redox equilibrium
      Specific Conductance (µS/cm,  25°C)  = 306
                          Density (g/cmł)  =   0.99707
                               Volume (L)  =   1.00298
                        Activity of water  =   1.000
                 Ionic strength (mol/kgw)  =   1.080e-03
                       Mass of water (kg)  =   1.000e+00
                 Total alkalinity (eq/kg)  =  -7.489e-04
                         Temperature (°C)  =  25.00
                  Electrical balance (eq)  =  -4.653e-14
 Percent error, 100*(Cat-|An|)/(Cat+|An|)  =  -0.00
                               Iterations  = 185
                                  Total H  = 1.110132e+02
                                  Total O  = 5.550797e+01

----------------------------Distribution of species----------------------------

                                               Log       Log       Log    mole V
   Species          Molality    Activity  Molality  Activity     Gamma   cmł/mol

   H+              7.273e-04   7.022e-04    -3.138    -3.154    -0.015      0.00
   OH-             1.496e-11   1.441e-11   -10.825   -10.841    -0.016     -4.11
   H2O             5.551e+01   1.000e+00     1.744    -0.000     0.000     18.07
H(0)          0.000e+00
   H2              0.000e+00   0.000e+00   -44.247   -44.247     0.000     28.61
Na            1.216e-09
   Na+             1.214e-09   1.170e-09    -8.916    -8.932    -0.016     -1.48
   NaSO4-          1.854e-12   1.788e-12   -11.732   -11.748    -0.016     13.75
   NaOH            1.687e-30   1.687e-30   -29.773   -29.773     0.000     (0)  
O(0)          2.600e-04
   O2              1.300e-04   1.300e-04    -3.886    -3.886     0.000     30.40
S(-2)         0.000e+00
   H2S             0.000e+00   0.000e+00  -133.620  -133.620     0.000     37.16
   HS-             0.000e+00   0.000e+00  -137.392  -137.408    -0.016     20.60
   S-2             0.000e+00   0.000e+00  -147.109  -147.172    -0.064     (0)  
S(6)          3.744e-04
   SO4-2           3.529e-04   3.047e-04    -3.452    -3.516    -0.064     14.52
   HSO4-           2.159e-05   2.080e-05    -4.666    -4.682    -0.016     40.28
   NaSO4-          1.854e-12   1.788e-12   -11.732   -11.748    -0.016     13.75

------------------------------Saturation indices-------------------------------

  Phase               SI** log IAP   log K(298 K,   1 atm)

  H2(g)           -41.15    -44.25   -3.10  H2
  H2O(g)           -1.50     -0.00    1.50  H2O
  H2S(g)         -132.57   -140.56   -7.99  H2S
  O2(g)            -0.99     -3.89   -2.89  O2
  Sulfur          -97.40    -92.52    4.88  S

**For a gas, SI = log10(fugacity). Fugacity = pressure * phi / 1 atm.
  For ideal gases, phi = 1.

Reaction step 14.

Using solution 1.	acid_only_accessible_pyrite
Using kinetics 1.	

Kinetics 1.	

	Time step: 8.4672e+06 seconds

	Rate name       Delta Moles Total Moles   Reactant        Coefficient

	Pyrite_Acid      -2.015e-04   1.180e-02   H2SO4                     2

-----------------------------Solution composition------------------------------

	Elements           Molality       Moles

	Na                1.216e-09   1.216e-09
	S                 4.030e-04   4.030e-04

----------------------------Description of solution----------------------------

                                       pH  =   3.123      Charge balance
                                       pe  =  17.426      Adjusted to redox equilibrium
      Specific Conductance (µS/cm,  25°C)  = 329
                          Density (g/cmł)  =   0.99708
                               Volume (L)  =   1.00298
                        Activity of water  =   1.000
                 Ionic strength (mol/kgw)  =   1.160e-03
                       Mass of water (kg)  =   1.000e+00
                 Total alkalinity (eq/kg)  =  -8.060e-04
                         Temperature (°C)  =  25.00
                  Electrical balance (eq)  =  -5.947e-14
 Percent error, 100*(Cat-|An|)/(Cat+|An|)  =  -0.00
                               Iterations  = 185
                                  Total H  = 1.110132e+02
                                  Total O  = 5.550809e+01

----------------------------Distribution of species----------------------------

                                               Log       Log       Log    mole V
   Species          Molality    Activity  Molality  Activity     Gamma   cmł/mol

   H+              7.813e-04   7.534e-04    -3.107    -3.123    -0.016      0.00
   OH-             1.396e-11   1.343e-11   -10.855   -10.872    -0.017     -4.10
   H2O             5.551e+01   1.000e+00     1.744    -0.000     0.000     18.07
H(0)          0.000e+00
   H2              0.000e+00   0.000e+00   -44.247   -44.247     0.000     28.61
Na            1.216e-09
   Na+             1.214e-09   1.169e-09    -8.916    -8.932    -0.017     -1.47
   NaSO4-          1.977e-12   1.904e-12   -11.704   -11.720    -0.016     13.76
   NaOH            1.570e-30   1.570e-30   -29.804   -29.804     0.000     (0)  
O(0)          2.600e-04
   O2              1.300e-04   1.300e-04    -3.886    -3.886     0.000     30.40
S(-2)         0.000e+00
   H2S             0.000e+00   0.000e+00  -133.531  -133.530     0.000     37.16
   HS-             0.000e+00   0.000e+00  -137.332  -137.349    -0.017     20.61
   S-2             0.000e+00   0.000e+00  -147.078  -147.144    -0.066     (0)  
S(6)          4.030e-04
   SO4-2           3.783e-04   3.251e-04    -3.422    -3.488    -0.066     14.52
   HSO4-           2.474e-05   2.381e-05    -4.607    -4.623    -0.017     40.28
   NaSO4-          1.977e-12   1.904e-12   -11.704   -11.720    -0.016     13.76

------------------------------Saturation indices-------------------------------

  Phase               SI** log IAP   log K(298 K,   1 atm)

  H2(g)           -41.15    -44.25   -3.10  H2
  H2O(g)           -1.50     -0.00    1.50  H2O
  H2S(g)         -132.48   -140.47   -7.99  H2S
  O2(g)            -0.99     -3.89   -2.89  O2
  Sulfur          -97.32    -92.43    4.88  S

**For a gas, SI = log10(fugacity). Fugacity = pressure * phi / 1 atm.
  For ideal gases, phi = 1.

Reaction step 15.

Using solution 1.	acid_only_accessible_pyrite
Using kinetics 1.	

Kinetics 1.	

	Time step: 9.072e+06 seconds

	Rate name       Delta Moles Total Moles   Reactant        Coefficient

	Pyrite_Acid      -2.158e-04   1.178e-02   H2SO4                     2

-----------------------------Solution composition------------------------------

	Elements           Molality       Moles

	Na                1.216e-09   1.216e-09
	S                 4.315e-04   4.315e-04

----------------------------Description of solution----------------------------

                                       pH  =   3.095      Charge balance
                                       pe  =  17.454      Adjusted to redox equilibrium
      Specific Conductance (µS/cm,  25°C)  = 351
                          Density (g/cmł)  =   0.99708
                               Volume (L)  =   1.00298
                        Activity of water  =   1.000
                 Ionic strength (mol/kgw)  =   1.238e-03
                       Mass of water (kg)  =   1.000e+00
                 Total alkalinity (eq/kg)  =  -8.631e-04
                         Temperature (°C)  =  25.00
                  Electrical balance (eq)  =  -7.550e-14
 Percent error, 100*(Cat-|An|)/(Cat+|An|)  =  -0.00
                               Iterations  = 185
                                  Total H  = 1.110133e+02
                                  Total O  = 5.550820e+01

----------------------------Distribution of species----------------------------

                                               Log       Log       Log    mole V
   Species          Molality    Activity  Molality  Activity     Gamma   cmł/mol

   H+              8.350e-04   8.043e-04    -3.078    -3.095    -0.016      0.00
   OH-             1.309e-11   1.258e-11   -10.883   -10.900    -0.017     -4.10
   H2O             5.551e+01   1.000e+00     1.744    -0.000     0.000     18.07
H(0)          0.000e+00
   H2              0.000e+00   0.000e+00   -44.247   -44.247     0.000     28.61
Na            1.216e-09
   Na+             1.214e-09   1.167e-09    -8.916    -8.933    -0.017     -1.47
   NaSO4-          2.099e-12   2.019e-12   -11.678   -11.695    -0.017     13.77
   NaOH            1.468e-30   1.469e-30   -29.833   -29.833     0.000     (0)  
O(0)          2.600e-04
   O2              1.300e-04   1.300e-04    -3.886    -3.886     0.000     30.40
S(-2)         0.000e+00
   H2S             0.000e+00   0.000e+00  -133.448  -133.448     0.000     37.16
   HS-             0.000e+00   0.000e+00  -137.278  -137.295    -0.017     20.61
   S-2             0.000e+00   0.000e+00  -147.050  -147.118    -0.068     (0)  
S(6)          4.315e-04
   SO4-2           4.035e-04   3.450e-04    -3.394    -3.462    -0.068     14.53
   HSO4-           2.807e-05   2.698e-05    -4.552    -4.569    -0.017     40.28
   NaSO4-          2.099e-12   2.019e-12   -11.678   -11.695    -0.017     13.77

------------------------------Saturation indices-------------------------------

  Phase               SI** log IAP   log K(298 K,   1 atm)

  H2(g)           -41.15    -44.25   -3.10  H2
  H2O(g)           -1.50     -0.00    1.50  H2O
  H2S(g)         -132.40   -140.39   -7.99  H2S
  O2(g)            -0.99     -3.89   -2.89  O2
  Sulfur          -97.23    -92.35    4.88  S

**For a gas, SI = log10(fugacity). Fugacity = pressure * phi / 1 atm.
  For ideal gases, phi = 1.

Reaction step 16.

Using solution 1.	acid_only_accessible_pyrite
Using kinetics 1.	

Kinetics 1.	

	Time step: 9.6768e+06 seconds

	Rate name       Delta Moles Total Moles   Reactant        Coefficient

	Pyrite_Acid      -2.300e-04   1.177e-02   H2SO4                     2

-----------------------------Solution composition------------------------------

	Elements           Molality       Moles

	Na                1.216e-09   1.216e-09
	S                 4.600e-04   4.600e-04

----------------------------Description of solution----------------------------

                                       pH  =   3.068      Charge balance
                                       pe  =  17.480      Adjusted to redox equilibrium
      Specific Conductance (µS/cm,  25°C)  = 374
                          Density (g/cmł)  =   0.99708
                               Volume (L)  =   1.00298
                        Activity of water  =   1.000
                 Ionic strength (mol/kgw)  =   1.317e-03
                       Mass of water (kg)  =   1.000e+00
                 Total alkalinity (eq/kg)  =  -9.200e-04
                         Temperature (°C)  =  25.00
                  Electrical balance (eq)  =   1.064e-14
 Percent error, 100*(Cat-|An|)/(Cat+|An|)  =   0.00
                               Iterations  = 183
                                  Total H  = 1.110134e+02
                                  Total O  = 5.550832e+01

----------------------------Distribution of species----------------------------

                                               Log       Log       Log    mole V
   Species          Molality    Activity  Molality  Activity     Gamma   cmł/mol

   H+              8.885e-04   8.549e-04    -3.051    -3.068    -0.017      0.00
   OH-             1.233e-11   1.184e-11   -10.909   -10.927    -0.018     -4.10
   H2O             5.551e+01   1.000e+00     1.744    -0.000     0.000     18.07
H(0)          0.000e+00
   H2              0.000e+00   0.000e+00   -44.247   -44.247     0.000     28.61
Na            1.216e-09
   Na+             1.214e-09   1.166e-09    -8.916    -8.933    -0.018     -1.47
   NaSO4-          2.218e-12   2.131e-12   -11.654   -11.671    -0.017     13.77
   NaOH            1.380e-30   1.380e-30   -29.860   -29.860     0.000     (0)  
O(0)          2.600e-04
   O2              1.300e-04   1.300e-04    -3.886    -3.886     0.000     30.40
S(-2)         0.000e+00
   H2S             0.000e+00   0.000e+00  -133.371  -133.371     0.000     37.16
   HS-             0.000e+00   0.000e+00  -137.226  -137.244    -0.018     20.61
   S-2             0.000e+00   0.000e+00  -147.024  -147.094    -0.070     (0)  
S(6)          4.600e-04
   SO4-2           4.284e-04   3.647e-04    -3.368    -3.438    -0.070     14.53
   HSO4-           3.157e-05   3.032e-05    -4.501    -4.518    -0.018     40.28
   NaSO4-          2.218e-12   2.131e-12   -11.654   -11.671    -0.017     13.77

------------------------------Saturation indices-------------------------------

  Phase               SI** log IAP   log K(298 K,   1 atm)

  H2(g)           -41.15    -44.25   -3.10  H2
  H2O(g)           -1.50     -0.00    1.50  H2O
  H2S(g)         -132.32   -140.31   -7.99  H2S
  O2(g)            -0.99     -3.89   -2.89  O2
  Sulfur          -97.16    -92.27    4.88  S

**For a gas, SI = log10(fugacity). Fugacity = pressure * phi / 1 atm.
  For ideal gases, phi = 1.

Reaction step 17.

Using solution 1.	acid_only_accessible_pyrite
Using kinetics 1.	

Kinetics 1.	

	Time step: 1.02816e+07 seconds

	Rate name       Delta Moles Total Moles   Reactant        Coefficient

	Pyrite_Acid      -2.442e-04   1.176e-02   H2SO4                     2

-----------------------------Solution composition------------------------------

	Elements           Molality       Moles

	Na                1.216e-09   1.216e-09
	S                 4.885e-04   4.885e-04

----------------------------Description of solution----------------------------

                                       pH  =   3.043      Charge balance
                                       pe  =  17.505      Adjusted to redox equilibrium
      Specific Conductance (µS/cm,  25°C)  = 396
                          Density (g/cmł)  =   0.99708
                               Volume (L)  =   1.00298
                        Activity of water  =   1.000
                 Ionic strength (mol/kgw)  =   1.395e-03
                       Mass of water (kg)  =   1.000e+00
                 Total alkalinity (eq/kg)  =  -9.770e-04
                         Temperature (°C)  =  25.00
                  Electrical balance (eq)  =  -7.587e-14
 Percent error, 100*(Cat-|An|)/(Cat+|An|)  =  -0.00
                               Iterations  = 184
                                  Total H  = 1.110134e+02
                                  Total O  = 5.550843e+01

----------------------------Distribution of species----------------------------

                                               Log       Log       Log    mole V
   Species          Molality    Activity  Molality  Activity     Gamma   cmł/mol

   H+              9.417e-04   9.052e-04    -3.026    -3.043    -0.017      0.00
   OH-             1.166e-11   1.118e-11   -10.933   -10.952    -0.018     -4.10
   H2O             5.551e+01   1.000e+00     1.744    -0.000     0.000     18.07
H(0)          0.000e+00
   H2              0.000e+00   0.000e+00   -44.247   -44.247     0.000     28.61
Na            1.216e-09
   Na+             1.214e-09   1.164e-09    -8.916    -8.934    -0.018     -1.47
   NaSO4-          2.336e-12   2.242e-12   -11.632   -11.649    -0.018     13.78
   NaOH            1.301e-30   1.302e-30   -29.886   -29.885     0.000     (0)  
O(0)          2.600e-04
   O2              1.300e-04   1.300e-04    -3.886    -3.886     0.000     30.40
S(-2)         0.000e+00
   H2S             0.000e+00   0.000e+00  -133.299  -133.298     0.000     37.16
   HS-             0.000e+00   0.000e+00  -137.179  -137.197    -0.018     20.61
   S-2             0.000e+00   0.000e+00  -147.000  -147.072    -0.072     (0)  
S(6)          4.885e-04
   SO4-2           4.532e-04   3.841e-04    -3.344    -3.416    -0.072     14.53
   HSO4-           3.525e-05   3.381e-05    -4.453    -4.471    -0.018     40.28
   NaSO4-          2.336e-12   2.242e-12   -11.632   -11.649    -0.018     13.78

------------------------------Saturation indices-------------------------------

  Phase               SI** log IAP   log K(298 K,   1 atm)

  H2(g)           -41.15    -44.25   -3.10  H2
  H2O(g)           -1.50     -0.00    1.50  H2O
  H2S(g)         -132.25   -140.24   -7.99  H2S
  O2(g)            -0.99     -3.89   -2.89  O2
  Sulfur          -97.08    -92.20    4.88  S

**For a gas, SI = log10(fugacity). Fugacity = pressure * phi / 1 atm.
  For ideal gases, phi = 1.

Reaction step 18.

Using solution 1.	acid_only_accessible_pyrite
Using kinetics 1.	

Kinetics 1.	

	Time step: 1.08864e+07 seconds

	Rate name       Delta Moles Total Moles   Reactant        Coefficient

	Pyrite_Acid      -2.584e-04   1.174e-02   H2SO4                     2

-----------------------------Solution composition------------------------------

	Elements           Molality       Moles

	Na                1.216e-09   1.216e-09
	S                 5.169e-04   5.169e-04

----------------------------Description of solution----------------------------

                                       pH  =   3.020      Charge balance
                                       pe  =  17.529      Adjusted to redox equilibrium
      Specific Conductance (µS/cm,  25°C)  = 418
                          Density (g/cmł)  =   0.99709
                               Volume (L)  =   1.00298
                        Activity of water  =   1.000
                 Ionic strength (mol/kgw)  =   1.473e-03
                       Mass of water (kg)  =   1.000e+00
                 Total alkalinity (eq/kg)  =  -1.034e-03
                         Temperature (°C)  =  25.00
                  Electrical balance (eq)  =  -1.301e-13
 Percent error, 100*(Cat-|An|)/(Cat+|An|)  =  -0.00
                               Iterations  = 183
                                  Total H  = 1.110135e+02
                                  Total O  = 5.550854e+01

----------------------------Distribution of species----------------------------

                                               Log       Log       Log    mole V
   Species          Molality    Activity  Molality  Activity     Gamma   cmł/mol

   H+              9.947e-04   9.553e-04    -3.002    -3.020    -0.018      0.00
   OH-             1.106e-11   1.060e-11   -10.956   -10.975    -0.019     -4.10
   H2O             5.551e+01   1.000e+00     1.744    -0.000     0.000     18.07
H(0)          0.000e+00
   H2              0.000e+00   0.000e+00   -44.247   -44.247     0.000     28.61
Na            1.216e-09
   Na+             1.214e-09   1.163e-09    -8.916    -8.934    -0.018     -1.47
   NaSO4-          2.452e-12   2.350e-12   -11.611   -11.629    -0.018     13.79
   NaOH            1.232e-30   1.232e-30   -29.909   -29.909     0.000     (0)  
O(0)          2.600e-04
   O2              1.300e-04   1.300e-04    -3.886    -3.886     0.000     30.40
S(-2)         0.000e+00
   H2S             0.000e+00   0.000e+00  -133.231  -133.231     0.000     37.16
   HS-             0.000e+00   0.000e+00  -137.134  -137.153    -0.019     20.61
   S-2             0.000e+00   0.000e+00  -146.977  -147.051    -0.074     (0)  
S(6)          5.169e-04
   SO4-2           4.778e-04   4.032e-04    -3.321    -3.394    -0.074     14.54
   HSO4-           3.909e-05   3.745e-05    -4.408    -4.427    -0.019     40.28
   NaSO4-          2.452e-12   2.350e-12   -11.611   -11.629    -0.018     13.79

------------------------------Saturation indices-------------------------------

  Phase               SI** log IAP   log K(298 K,   1 atm)

  H2(g)           -41.15    -44.25   -3.10  H2
  H2O(g)           -1.50     -0.00    1.50  H2O
  H2S(g)         -132.18   -140.17   -7.99  H2S
  O2(g)            -0.99     -3.89   -2.89  O2
  Sulfur          -97.02    -92.13    4.88  S

**For a gas, SI = log10(fugacity). Fugacity = pressure * phi / 1 atm.
  For ideal gases, phi = 1.

Reaction step 19.

Using solution 1.	acid_only_accessible_pyrite
Using kinetics 1.	

Kinetics 1.	

	Time step: 1.14912e+07 seconds

	Rate name       Delta Moles Total Moles   Reactant        Coefficient

	Pyrite_Acid      -2.726e-04   1.173e-02   H2SO4                     2

-----------------------------Solution composition------------------------------

	Elements           Molality       Moles

	Na                1.216e-09   1.216e-09
	S                 5.453e-04   5.453e-04

----------------------------Description of solution----------------------------

                                       pH  =   2.998      Charge balance
                                       pe  =  17.551      Adjusted to redox equilibrium
      Specific Conductance (µS/cm,  25°C)  = 440
                          Density (g/cmł)  =   0.99709
                               Volume (L)  =   1.00298
                        Activity of water  =   1.000
                 Ionic strength (mol/kgw)  =   1.550e-03
                       Mass of water (kg)  =   1.000e+00
                 Total alkalinity (eq/kg)  =  -1.091e-03
                         Temperature (°C)  =  25.00
                  Electrical balance (eq)  =  -1.747e-13
 Percent error, 100*(Cat-|An|)/(Cat+|An|)  =  -0.00
                               Iterations  = 184
                                  Total H  = 1.110135e+02
                                  Total O  = 5.550866e+01

----------------------------Distribution of species----------------------------

                                               Log       Log       Log    mole V
   Species          Molality    Activity  Molality  Activity     Gamma   cmł/mol

   H+              1.047e-03   1.005e-03    -2.980    -2.998    -0.018      0.00
   OH-             1.053e-11   1.007e-11   -10.978   -10.997    -0.019     -4.10
   H2O             5.551e+01   1.000e+00     1.744    -0.000     0.000     18.07
H(0)          0.000e+00
   H2              0.000e+00   0.000e+00   -44.247   -44.247     0.000     28.61
Na            1.216e-09
   Na+             1.214e-09   1.162e-09    -8.916    -8.935    -0.019     -1.47
   NaSO4-          2.566e-12   2.457e-12   -11.591   -11.610    -0.019     13.80
   NaOH            1.170e-30   1.170e-30   -29.932   -29.932     0.000     (0)  
O(0)          2.600e-04
   O2              1.300e-04   1.300e-04    -3.886    -3.886     0.000     30.40
S(-2)         0.000e+00
   H2S             0.000e+00   0.000e+00  -133.167  -133.167     0.000     37.16
   HS-             0.000e+00   0.000e+00  -137.091  -137.111    -0.019     20.61
   S-2             0.000e+00   0.000e+00  -146.955  -147.031    -0.075     (0)  
S(6)          5.453e-04
   SO4-2           5.022e-04   4.221e-04    -3.299    -3.375    -0.075     14.54
   HSO4-           4.309e-05   4.124e-05    -4.366    -4.385    -0.019     40.28
   NaSO4-          2.566e-12   2.457e-12   -11.591   -11.610    -0.019     13.80

------------------------------Saturation indices-------------------------------

  Phase               SI** log IAP   log K(298 K,   1 atm)

  H2(g)           -41.15    -44.25   -3.10  H2
  H2O(g)           -1.50     -0.00    1.50  H2O
  H2S(g)         -132.12   -140.11   -7.99  H2S
  O2(g)            -0.99     -3.89   -2.89  O2
  Sulfur          -96.95    -92.07    4.88  S

**For a gas, SI = log10(fugacity). Fugacity = pressure * phi / 1 atm.
  For ideal gases, phi = 1.

Reaction step 20.

Using solution 1.	acid_only_accessible_pyrite
Using kinetics 1.	

Kinetics 1.	

	Time step: 1.2096e+07 seconds

	Rate name       Delta Moles Total Moles   Reactant        Coefficient

	Pyrite_Acid      -2.868e-04   1.171e-02   H2SO4                     2

-----------------------------Solution composition------------------------------

	Elements           Molality       Moles

	Na                1.216e-09   1.216e-09
	S                 5.736e-04   5.736e-04

----------------------------Description of solution----------------------------

                                       pH  =   2.977      Charge balance
                                       pe  =  17.572      Adjusted to redox equilibrium
      Specific Conductance (µS/cm,  25°C)  = 462
                          Density (g/cmł)  =   0.99709
                               Volume (L)  =   1.00298
                        Activity of water  =   1.000
                 Ionic strength (mol/kgw)  =   1.626e-03
                       Mass of water (kg)  =   1.000e+00
                 Total alkalinity (eq/kg)  =  -1.147e-03
                         Temperature (°C)  =  25.00
                  Electrical balance (eq)  =  -2.193e-13
 Percent error, 100*(Cat-|An|)/(Cat+|An|)  =  -0.00
                               Iterations  = 184
                                  Total H  = 1.110136e+02
                                  Total O  = 5.550877e+01

----------------------------Distribution of species----------------------------

                                               Log       Log       Log    mole V
   Species          Molality    Activity  Molality  Activity     Gamma   cmł/mol

   H+              1.100e-03   1.054e-03    -2.959    -2.977    -0.018      0.00
   OH-             1.004e-11   9.599e-12   -10.998   -11.018    -0.020     -4.10
   H2O             5.551e+01   1.000e+00     1.744    -0.000     0.000     18.07
H(0)          0.000e+00
   H2              0.000e+00   0.000e+00   -44.247   -44.247     0.000     28.61
Na            1.216e-09
   Na+             1.213e-09   1.160e-09    -8.916    -8.935    -0.019     -1.46
   NaSO4-          2.679e-12   2.563e-12   -11.572   -11.591    -0.019     13.81
   NaOH            1.113e-30   1.114e-30   -29.953   -29.953     0.000     (0)  
O(0)          2.600e-04
   O2              1.300e-04   1.300e-04    -3.886    -3.886     0.000     30.40
S(-2)         0.000e+00
   H2S             0.000e+00   0.000e+00  -133.107  -133.106     0.000     37.16
   HS-             0.000e+00   0.000e+00  -137.051  -137.071    -0.020     20.61
   S-2             0.000e+00   0.000e+00  -146.935  -147.012    -0.077     (0)  
S(6)          5.736e-04
   SO4-2           5.264e-04   4.406e-04    -3.279    -3.356    -0.077     14.55
   HSO4-           4.725e-05   4.517e-05    -4.326    -4.345    -0.020     40.28
   NaSO4-          2.679e-12   2.563e-12   -11.572   -11.591    -0.019     13.81

------------------------------Saturation indices-------------------------------

  Phase               SI** log IAP   log K(298 K,   1 atm)

  H2(g)           -41.15    -44.25   -3.10  H2
  H2O(g)           -1.50     -0.00    1.50  H2O
  H2S(g)         -132.06   -140.05   -7.99  H2S
  O2(g)            -0.99     -3.89   -2.89  O2
  Sulfur          -96.89    -92.01    4.88  S

**For a gas, SI = log10(fugacity). Fugacity = pressure * phi / 1 atm.
  For ideal gases, phi = 1.

Reaction step 21.

Using solution 1.	acid_only_accessible_pyrite
Using kinetics 1.	

Kinetics 1.	

	Time step: 1.27008e+07 seconds

	Rate name       Delta Moles Total Moles   Reactant        Coefficient

	Pyrite_Acid      -3.010e-04   1.170e-02   H2SO4                     2

-----------------------------Solution composition------------------------------

	Elements           Molality       Moles

	Na                1.216e-09   1.216e-09
	S                 6.020e-04   6.020e-04

----------------------------Description of solution----------------------------

                                       pH  =   2.957      Charge balance
                                       pe  =  17.591      Adjusted to redox equilibrium
      Specific Conductance (µS/cm,  25°C)  = 483
                          Density (g/cmł)  =   0.99709
                               Volume (L)  =   1.00298
                        Activity of water  =   1.000
                 Ionic strength (mol/kgw)  =   1.703e-03
                       Mass of water (kg)  =   1.000e+00
                 Total alkalinity (eq/kg)  =  -1.204e-03
                         Temperature (°C)  =  25.00
                  Electrical balance (eq)  =  -2.683e-13
 Percent error, 100*(Cat-|An|)/(Cat+|An|)  =  -0.00
                               Iterations  = 184
                                  Total H  = 1.110136e+02
                                  Total O  = 5.550888e+01

----------------------------Distribution of species----------------------------

                                               Log       Log       Log    mole V
   Species          Molality    Activity  Molality  Activity     Gamma   cmł/mol

   H+              1.152e-03   1.104e-03    -2.938    -2.957    -0.019      0.00
   OH-             9.605e-12   9.171e-12   -11.018   -11.038    -0.020     -4.10
   H2O             5.551e+01   1.000e+00     1.744    -0.000     0.000     18.07
H(0)          0.000e+00
   H2              0.000e+00   0.000e+00   -44.247   -44.247     0.000     28.61
Na            1.216e-09
   Na+             1.213e-09   1.159e-09    -8.916    -8.936    -0.020     -1.46
   NaSO4-          2.790e-12   2.666e-12   -11.554   -11.574    -0.020     13.82
   NaOH            1.063e-30   1.063e-30   -29.974   -29.973     0.000     (0)  
O(0)          2.600e-04
   O2              1.300e-04   1.301e-04    -3.886    -3.886     0.000     30.40
S(-2)         0.000e+00
   H2S             0.000e+00   0.000e+00  -133.049  -133.049     0.000     37.16
   HS-             0.000e+00   0.000e+00  -137.014  -137.034    -0.020     20.61
   S-2             0.000e+00   0.000e+00  -146.916  -146.994    -0.079     (0)  
S(6)          6.020e-04
   SO4-2           5.504e-04   4.590e-04    -3.259    -3.338    -0.079     14.55
   HSO4-           5.156e-05   4.925e-05    -4.288    -4.308    -0.020     40.29
   NaSO4-          2.790e-12   2.666e-12   -11.554   -11.574    -0.020     13.82

------------------------------Saturation indices-------------------------------

  Phase               SI** log IAP   log K(298 K,   1 atm)

  H2(g)           -41.15    -44.25   -3.10  H2
  H2O(g)           -1.50     -0.00    1.50  H2O
  H2S(g)         -132.00   -139.99   -7.99  H2S
  O2(g)            -0.99     -3.89   -2.89  O2
  Sulfur          -96.83    -91.95    4.88  S

**For a gas, SI = log10(fugacity). Fugacity = pressure * phi / 1 atm.
  For ideal gases, phi = 1.

Reaction step 22.

Using solution 1.	acid_only_accessible_pyrite
Using kinetics 1.	

Kinetics 1.	

	Time step: 1.33056e+07 seconds

	Rate name       Delta Moles Total Moles   Reactant        Coefficient

	Pyrite_Acid      -3.151e-04   1.168e-02   H2SO4                     2

-----------------------------Solution composition------------------------------

	Elements           Molality       Moles

	Na                1.216e-09   1.216e-09
	S                 6.302e-04   6.302e-04

----------------------------Description of solution----------------------------

                                       pH  =   2.938      Charge balance
                                       pe  =  17.610      Adjusted to redox equilibrium
      Specific Conductance (µS/cm,  25°C)  = 505
                          Density (g/cmł)  =   0.99709
                               Volume (L)  =   1.00298
                        Activity of water  =   1.000
                 Ionic strength (mol/kgw)  =   1.779e-03
                       Mass of water (kg)  =   1.000e+00
                 Total alkalinity (eq/kg)  =  -1.260e-03
                         Temperature (°C)  =  25.00
                  Electrical balance (eq)  =  -3.240e-13
 Percent error, 100*(Cat-|An|)/(Cat+|An|)  =  -0.00
                               Iterations  = 186
                                  Total H  = 1.110137e+02
                                  Total O  = 5.550900e+01

----------------------------Distribution of species----------------------------

                                               Log       Log       Log    mole V
   Species          Molality    Activity  Molality  Activity     Gamma   cmł/mol

   H+              1.204e-03   1.153e-03    -2.919    -2.938    -0.019      0.00
   OH-             9.206e-12   8.781e-12   -11.036   -11.056    -0.021     -4.10
   H2O             5.551e+01   1.000e+00     1.744    -0.000     0.000     18.07
H(0)          0.000e+00
   H2              0.000e+00   0.000e+00   -44.247   -44.247     0.000     28.61
Na            1.216e-09
   Na+             1.213e-09   1.158e-09    -8.916    -8.936    -0.020     -1.46
   NaSO4-          2.899e-12   2.769e-12   -11.538   -11.558    -0.020     13.82
[...]
  CH4(g)         -141.97   -144.77   -2.80  CH4
  Chalcedony        0.77     -2.78   -3.55  SiO2
  Chlorite(14A)    -8.45     59.93   68.38  Mg5Al2Si3O10(OH)8
  Chrysotile      -12.13     20.07   32.20  Mg3Si2O5(OH)4
  CO2(g)           -3.30     -4.77   -1.47  CO2
  Dolomite         -9.62    -26.71  -17.09  CaMg(CO3)2
  Gibbsite          4.67     12.78    8.11  Al(OH)3
  Gypsum           -2.43     -7.01   -4.58  CaSO4:2H2O
  H2(g)           -41.15    -44.25   -3.10  H2
  H2O(g)           -1.50     -0.00    1.50  H2O
  H2S(g)         -137.40   -145.40   -7.99  H2S
  Illite           11.39    -28.88  -40.27  K0.6Mg0.25Al2.3Si3.5O10(OH)2
  K-feldspar        4.78    -15.79  -20.57  KAlSi3O8
  K-mica           19.72     32.43   12.70  KAl3Si3O10(OH)2
  Kaolinite        12.55     19.99    7.43  Al2Si2O5(OH)4
  O2(g)            -0.99     -3.89   -2.89  O2
  Quartz            1.20     -2.78   -3.98  SiO2
  Sepiolite        -7.02      8.74   15.76  Mg2Si3O7.5OH:3H2O
  Sepiolite(d)     -9.92      8.74   18.66  Mg2Si3O7.5OH:3H2O
  SiO2(a)          -0.07     -2.78   -2.71  SiO2
  Sulfur         -102.24    -97.36    4.88  S
  Talc             -6.89     14.51   21.40  Mg3Si4O10(OH)2

**For a gas, SI = log10(fugacity). Fugacity = pressure * phi / 1 atm.
  For ideal gases, phi = 1.

Reaction step 149.

Using solution 4.	sample_B_trace_carbonate_proxy
Using kinetics 4.	

Kinetics 4.	

	Time step: 9.01152e+07 seconds

	Rate name       Delta Moles Total Moles   Reactant        Coefficient

	Pyrite_Acid      -9.895e-04   5.010e-03   H2SO4                     2
	Anorthite_Kin    -1.181e-04   1.649e-01   CaAl2Si2O8                1
	Kmica_Kin        -1.628e-04   2.758e-01   KAl3Si3O10(OH)2           1
	Chlorite_Kin     -6.015e-05   8.394e-02   Mg5Al2Si3O10(OH)8           1
	Biotite_Kin      -2.500e-04   2.647e-01   KMg3AlSi3O10(OH)2           1
	Dolomite_Kin     -1.152e-05   2.499e-02   CaMg(CO3)2                1

-----------------------------Solution composition------------------------------

	Elements           Molality       Moles

	Al                1.095e-03   1.095e-03
	C                 2.305e-05   2.305e-05
	Ca                1.297e-04   1.297e-04
	K                 4.128e-04   4.128e-04
	Mg                1.062e-03   1.062e-03
	Na                1.216e-09   1.216e-09
	S                 1.979e-03   1.979e-03
	Si                1.655e-03   1.655e-03

----------------------------Description of solution----------------------------

                                       pH  =   5.865      Charge balance
                                       pe  =  14.684      Adjusted to redox equilibrium
      Specific Conductance (µS/cm,  25°C)  = 367
                          Density (g/cmł)  =   0.99741
                               Volume (L)  =   1.00303
                        Activity of water  =   1.000
                 Ionic strength (mol/kgw)  =   6.473e-03
                       Mass of water (kg)  =   1.000e+00
                 Total alkalinity (eq/kg)  =   2.123e-03
                       Total CO2 (mol/kg)  =   2.305e-05
                         Temperature (°C)  =  25.00
                  Electrical balance (eq)  =   1.370e-13
 Percent error, 100*(Cat-|An|)/(Cat+|An|)  =   0.00
                               Iterations  = 336
                                  Total H  = 1.110177e+02
                                  Total O  = 5.552144e+01

----------------------------Distribution of species----------------------------

                                               Log       Log       Log    mole V
   Species          Molality    Activity  Molality  Activity     Gamma   cmł/mol

   H+              1.473e-06   1.364e-06    -5.832    -5.865    -0.033      0.00
   OH-             8.088e-09   7.418e-09    -8.092    -8.130    -0.038     -4.06
   H2O             5.551e+01   9.999e-01     1.744    -0.000     0.000     18.07
Al            1.095e-03
   Al(OH)2+        6.793e-04   6.254e-04    -3.168    -3.204    -0.036     (0)  
   AlOH+2          1.516e-04   1.089e-04    -3.819    -3.963    -0.144    -27.61
   Al(OH)4-        1.015e-04   9.329e-05    -3.993    -4.030    -0.037     (0)  
   Al(OH)3         6.744e-05   6.754e-05    -4.171    -4.170     0.001     (0)  
   AlSO4+          6.293e-05   5.783e-05    -4.201    -4.238    -0.037     (0)  
   Al+3            2.973e-05   1.496e-05    -4.527    -4.825    -0.298    -41.98
   Al(SO4)2-       2.433e-06   2.236e-06    -5.614    -5.650    -0.037     (0)  
   AlHSO4+2        9.836e-12   6.996e-12   -11.007   -11.155    -0.148     (0)  
C(-4)         0.000e+00
   CH4             0.000e+00   0.000e+00  -144.769  -144.769     0.001     35.46
C(4)          2.305e-05
   CO2             1.698e-05   1.700e-05    -4.770    -4.770     0.001     34.43
   HCO3-           6.020e-06   5.542e-06    -5.220    -5.256    -0.036     24.74
   MgHCO3+         4.485e-08   4.117e-08    -7.348    -7.385    -0.037      5.52
   CaHCO3+         6.179e-09   5.695e-09    -8.209    -8.245    -0.035      9.71
   CO3-2           2.652e-10   1.905e-10    -9.576    -9.720    -0.144     -5.09
   MgCO3           1.153e-10   1.154e-10    -9.938    -9.938     0.001    -17.09
   CaCO3           2.574e-11   2.577e-11   -10.589   -10.589     0.001    -14.60
   (CO2)2          5.298e-12   5.306e-12   -11.276   -11.275     0.001     68.87
   NaHCO3          3.458e-15   3.463e-15   -14.461   -14.461     0.001      1.80
   NaCO3-          4.293e-18   3.942e-18   -17.367   -17.404    -0.037     -0.96
Ca            1.297e-04
   Ca+2            1.122e-04   8.054e-05    -3.950    -4.094    -0.144    -17.98
   CaSO4           1.749e-05   1.751e-05    -4.757    -4.757     0.001      7.50
   CaHCO3+         6.179e-09   5.695e-09    -8.209    -8.245    -0.035      9.71
   CaHSO4+         1.710e-10   1.571e-10    -9.767    -9.804    -0.037     (0)  
   CaCO3           2.574e-11   2.577e-11   -10.589   -10.589     0.001    -14.60
   CaOH+           1.067e-11   9.796e-12   -10.972   -11.009    -0.037     (0)  
H(0)          0.000e+00
   H2              0.000e+00   0.000e+00   -44.248   -44.247     0.001     28.61
K             4.128e-04
   K+              4.093e-04   3.755e-04    -3.388    -3.425    -0.037      9.05
   KSO4-           3.504e-06   3.226e-06    -5.455    -5.491    -0.036     34.15
Mg            1.062e-03
   Mg+2            8.805e-04   6.349e-04    -3.055    -3.197    -0.142    -21.67
   MgSO4           1.817e-04   1.820e-04    -3.741    -3.740     0.001      5.84
   MgHCO3+         4.485e-08   4.117e-08    -7.348    -7.385    -0.037      5.52
   MgOH+           1.831e-09   1.690e-09    -8.737    -8.772    -0.035     (0)  
   MgCO3           1.153e-10   1.154e-10    -9.938    -9.938     0.001    -17.09
Na            1.216e-09
   Na+             1.209e-09   1.111e-09    -8.918    -8.954    -0.037     -1.41
   NaSO4-          7.398e-12   6.811e-12   -11.131   -11.167    -0.036     14.15
   NaHCO3          3.458e-15   3.463e-15   -14.461   -14.461     0.001      1.80
   NaCO3-          4.293e-18   3.942e-18   -17.367   -17.404    -0.037     -0.96
   NaOH            8.231e-28   8.243e-28   -27.085   -27.084     0.001     (0)  
O(0)          2.600e-04
   O2              1.300e-04   1.302e-04    -3.886    -3.885     0.001     30.40
S(-2)         0.000e+00
   H2S             0.000e+00   0.000e+00  -138.441  -138.440     0.001     37.16
   HS-             0.000e+00   0.000e+00  -139.479  -139.517    -0.038     20.65
   S-2             0.000e+00   0.000e+00  -146.425  -146.570    -0.145     (0)  
S(6)          1.979e-03
   SO4-2           1.708e-03   1.223e-03    -2.767    -2.913    -0.145     14.70
   MgSO4           1.817e-04   1.820e-04    -3.741    -3.740     0.001      5.84
   AlSO4+          6.293e-05   5.783e-05    -4.201    -4.238    -0.037     (0)  
   CaSO4           1.749e-05   1.751e-05    -4.757    -4.757     0.001      7.50
   KSO4-           3.504e-06   3.226e-06    -5.455    -5.491    -0.036     34.15
   Al(SO4)2-       2.433e-06   2.236e-06    -5.614    -5.650    -0.037     (0)  
   HSO4-           1.766e-07   1.622e-07    -6.753    -6.790    -0.037     40.32
   CaHSO4+         1.710e-10   1.571e-10    -9.767    -9.804    -0.037     (0)  
   AlHSO4+2        9.836e-12   6.996e-12   -11.007   -11.155    -0.148     (0)  
   NaSO4-          7.398e-12   6.811e-12   -11.131   -11.167    -0.036     14.15
Si            1.655e-03
   H4SiO4          1.655e-03   1.657e-03    -2.781    -2.781     0.001     52.08
   H3SiO4-         1.951e-07   1.791e-07    -6.710    -6.747    -0.037     28.02
   H2SiO4-2        1.243e-14   8.931e-15   -13.905   -14.049    -0.144     (0)  

------------------------------Saturation indices-------------------------------

  Phase               SI** log IAP   log K(298 K,   1 atm)

  Al(OH)3(a)        1.97     12.77   10.80  Al(OH)3
  Albite           -3.32    -21.33  -18.00  NaAlSi3O8
  Alunite          12.86     11.46   -1.40  KAl3(SO4)2(OH)6
  Anhydrite        -2.73     -7.01   -4.28  CaSO4
  Anorthite         2.00    -17.72  -19.71  CaAl2Si2O8
  Aragonite        -5.48    -13.81   -8.34  CaCO3
  Ca-Montmorillonite  13.03    -32.00  -45.03  Ca0.165Al2.33Si3.67O10(OH)2
  Calcite          -5.33    -13.81   -8.48  CaCO3
  CH4(g)         -141.97   -144.77   -2.80  CH4
  Chalcedony        0.77     -2.78   -3.55  SiO2
  Chlorite(14A)    -8.52     59.86   68.38  Mg5Al2Si3O10(OH)8
  Chrysotile      -12.16     20.04   32.20  Mg3Si2O5(OH)4
  CO2(g)           -3.30     -4.77   -1.47  CO2
  Dolomite         -9.64    -26.73  -17.09  CaMg(CO3)2
  Gibbsite          4.66     12.77    8.11  Al(OH)3
  Gypsum           -2.42     -7.01   -4.58  CaSO4:2H2O
  H2(g)           -41.15    -44.25   -3.10  H2
  H2O(g)           -1.50     -0.00    1.50  H2O
  H2S(g)         -137.39   -145.38   -7.99  H2S
  Illite           11.37    -28.89  -40.27  K0.6Mg0.25Al2.3Si3.5O10(OH)2
  K-feldspar        4.78    -15.80  -20.57  KAlSi3O8
  K-mica           19.71     32.41   12.70  KAl3Si3O10(OH)2
  Kaolinite        12.54     19.98    7.43  Al2Si2O5(OH)4
  O2(g)            -0.99     -3.89   -2.89  O2
  Quartz            1.20     -2.78   -3.98  SiO2
  Sepiolite        -7.04      8.72   15.76  Mg2Si3O7.5OH:3H2O
  Sepiolite(d)     -9.94      8.72   18.66  Mg2Si3O7.5OH:3H2O
  SiO2(a)          -0.07     -2.78   -2.71  SiO2
  Sulfur         -102.22    -97.34    4.88  S
  Talc             -6.92     14.48   21.40  Mg3Si4O10(OH)2

**For a gas, SI = log10(fugacity). Fugacity = pressure * phi / 1 atm.
  For ideal gases, phi = 1.

Reaction step 150.

Using solution 4.	sample_B_trace_carbonate_proxy
Using kinetics 4.	

Kinetics 4.	

	Time step: 9.072e+07 seconds

	Rate name       Delta Moles Total Moles   Reactant        Coefficient

	Pyrite_Acid      -9.956e-04   5.004e-03   H2SO4                     2
	Anorthite_Kin    -1.184e-04   1.649e-01   CaAl2Si2O8                1
	Kmica_Kin        -1.631e-04   2.758e-01   KAl3Si3O10(OH)2           1
	Chlorite_Kin     -6.029e-05   8.394e-02   Mg5Al2Si3O10(OH)8           1
	Biotite_Kin      -2.506e-04   2.647e-01   KMg3AlSi3O10(OH)2           1
	Dolomite_Kin     -1.156e-05   2.499e-02   CaMg(CO3)2                1

-----------------------------Solution composition------------------------------

	Elements           Molality       Moles

	Al                1.097e-03   1.097e-03
	C                 2.312e-05   2.312e-05
	Ca                1.300e-04   1.300e-04
	K                 4.137e-04   4.137e-04
	Mg                1.065e-03   1.065e-03
	Na                1.216e-09   1.216e-09
	S                 1.991e-03   1.991e-03
	Si                1.659e-03   1.659e-03

----------------------------Description of solution----------------------------

                                       pH  =   5.859      Charge balance
                                       pe  =  14.690      Adjusted to redox equilibrium
      Specific Conductance (µS/cm,  25°C)  = 369
                          Density (g/cmł)  =   0.99742
                               Volume (L)  =   1.00303
                        Activity of water  =   1.000
                 Ionic strength (mol/kgw)  =   6.503e-03
                       Mass of water (kg)  =   1.000e+00
                 Total alkalinity (eq/kg)  =   2.113e-03
                       Total CO2 (mol/kg)  =   2.312e-05
                         Temperature (°C)  =  25.00
                  Electrical balance (eq)  =   1.373e-13
 Percent error, 100*(Cat-|An|)/(Cat+|An|)  =   0.00
                               Iterations  = 336
                                  Total H  = 1.110177e+02
                                  Total O  = 5.552151e+01

----------------------------Distribution of species----------------------------

                                               Log       Log       Log    mole V
   Species          Molality    Activity  Molality  Activity     Gamma   cmł/mol

   H+              1.494e-06   1.384e-06    -5.826    -5.859    -0.033      0.00
   OH-             7.976e-09   7.314e-09    -8.098    -8.136    -0.038     -4.06
   H2O             5.551e+01   9.999e-01     1.744    -0.000     0.000     18.07
Al            1.097e-03
   Al(OH)2+        6.799e-04   6.259e-04    -3.168    -3.204    -0.036     (0)  
   AlOH+2          1.539e-04   1.105e-04    -3.813    -3.957    -0.144    -27.61
   Al(OH)4-        9.876e-05   9.075e-05    -4.005    -4.042    -0.037     (0)  
   Al(OH)3         6.654e-05   6.664e-05    -4.177    -4.176     0.001     (0)  
   AlSO4+          6.508e-05   5.980e-05    -4.187    -4.223    -0.037     (0)  
   Al+3            3.064e-05   1.540e-05    -4.514    -4.813    -0.299    -41.98
   Al(SO4)2-       2.528e-06   2.323e-06    -5.597    -5.634    -0.037     (0)  
   AlHSO4+2        1.032e-11   7.338e-12   -10.986   -11.134    -0.148     (0)  
C(-4)         0.000e+00
   CH4             0.000e+00   0.000e+00  -144.766  -144.766     0.001     35.46
C(4)          2.312e-05
   CO2             1.709e-05   1.712e-05    -4.767    -4.767     0.001     34.43
   HCO3-           5.977e-06   5.502e-06    -5.224    -5.260    -0.036     24.74
   MgHCO3+         4.457e-08   4.092e-08    -7.351    -7.388    -0.037      5.52
   CaHCO3+         6.143e-09   5.661e-09    -8.212    -8.247    -0.035      9.71
   CO3-2           2.597e-10   1.865e-10    -9.586    -9.729    -0.144     -5.08
   MgCO3           1.129e-10   1.131e-10    -9.947    -9.947     0.001    -17.09
   CaCO3           2.522e-11   2.526e-11   -10.598   -10.598     0.001    -14.60
   (CO2)2          5.371e-12   5.379e-12   -11.270   -11.269     0.001     68.87
   NaHCO3          3.432e-15   3.437e-15   -14.464   -14.464     0.001      1.80
   NaCO3-          4.201e-18   3.857e-18   -17.377   -17.414    -0.037     -0.96
Ca            1.300e-04
   Ca+2            1.124e-04   8.064e-05    -3.949    -4.093    -0.144    -17.98
   CaSO4           1.759e-05   1.761e-05    -4.755    -4.754     0.001      7.50
   CaHCO3+         6.143e-09   5.661e-09    -8.212    -8.247    -0.035      9.71
   CaHSO4+         1.745e-10   1.602e-10    -9.758    -9.795    -0.037     (0)  
   CaCO3           2.522e-11   2.526e-11   -10.598   -10.598     0.001    -14.60
   CaOH+           1.053e-11   9.670e-12   -10.977   -11.015    -0.037     (0)  
H(0)          0.000e+00
   H2              0.000e+00   0.000e+00   -44.248   -44.247     0.001     28.61
K             4.137e-04
   K+              4.102e-04   3.762e-04    -3.387    -3.425    -0.038      9.05
   KSO4-           3.527e-06   3.247e-06    -5.453    -5.489    -0.036     34.15
Mg            1.065e-03
   Mg+2            8.820e-04   6.356e-04    -3.055    -3.197    -0.142    -21.67
   MgSO4           1.827e-04   1.830e-04    -3.738    -3.738     0.001      5.84
   MgHCO3+         4.457e-08   4.092e-08    -7.351    -7.388    -0.037      5.52
   MgOH+           1.808e-09   1.667e-09    -8.743    -8.778    -0.035     (0)  
   MgCO3           1.129e-10   1.131e-10    -9.947    -9.947     0.001    -17.09
Na            1.216e-09
   Na+             1.209e-09   1.111e-09    -8.918    -8.954    -0.037     -1.41
   NaSO4-          7.430e-12   6.839e-12   -11.129   -11.165    -0.036     14.16
   NaHCO3          3.432e-15   3.437e-15   -14.464   -14.464     0.001      1.80
   NaCO3-          4.201e-18   3.857e-18   -17.377   -17.414    -0.037     -0.96
   NaOH            8.114e-28   8.126e-28   -27.091   -27.090     0.001     (0)  
O(0)          2.600e-04
   O2              1.300e-04   1.302e-04    -3.886    -3.885     0.001     30.40
S(-2)         0.000e+00
   H2S             0.000e+00   0.000e+00  -138.427  -138.426     0.001     37.16
   HS-             0.000e+00   0.000e+00  -139.471  -139.509    -0.038     20.65
   S-2             0.000e+00   0.000e+00  -146.423  -146.568    -0.145     (0)  
S(6)          1.991e-03
   SO4-2           1.717e-03   1.228e-03    -2.765    -2.911    -0.146     14.70
   MgSO4           1.827e-04   1.830e-04    -3.738    -3.738     0.001      5.84
   AlSO4+          6.508e-05   5.980e-05    -4.187    -4.223    -0.037     (0)  
   CaSO4           1.759e-05   1.761e-05    -4.755    -4.754     0.001      7.50
   KSO4-           3.527e-06   3.247e-06    -5.453    -5.489    -0.036     34.15
   Al(SO4)2-       2.528e-06   2.323e-06    -5.597    -5.634    -0.037     (0)  
   HSO4-           1.800e-07   1.652e-07    -6.745    -6.782    -0.037     40.32
   CaHSO4+         1.745e-10   1.602e-10    -9.758    -9.795    -0.037     (0)  
   AlHSO4+2        1.032e-11   7.338e-12   -10.986   -11.134    -0.148     (0)  
   NaSO4-          7.430e-12   6.839e-12   -11.129   -11.165    -0.036     14.16
Si            1.659e-03
   H4SiO4          1.659e-03   1.661e-03    -2.780    -2.780     0.001     52.08
   H3SiO4-         1.928e-07   1.770e-07    -6.715    -6.752    -0.037     28.02
   H2SiO4-2        1.212e-14   8.701e-15   -13.917   -14.060    -0.144     (0)  

------------------------------Saturation indices-------------------------------

  Phase               SI** log IAP   log K(298 K,   1 atm)

  Al(OH)3(a)        1.96     12.76   10.80  Al(OH)3
  Albite           -3.33    -21.33  -18.00  NaAlSi3O8
  Alunite          12.87     11.47   -1.40  KAl3(SO4)2(OH)6
  Anhydrite        -2.73     -7.00   -4.28  CaSO4
  Anorthite         1.98    -17.74  -19.71  CaAl2Si2O8
  Aragonite        -5.49    -13.82   -8.34  CaCO3
  Ca-Montmorillonite  13.01    -32.01  -45.03  Ca0.165Al2.33Si3.67O10(OH)2
  Calcite          -5.34    -13.82   -8.48  CaCO3
  CH4(g)         -141.96   -144.77   -2.80  CH4
  Chalcedony        0.77     -2.78   -3.55  SiO2
  Chlorite(14A)    -8.59     59.79   68.38  Mg5Al2Si3O10(OH)8
  Chrysotile      -12.20     20.00   32.20  Mg3Si2O5(OH)4
  CO2(g)           -3.30     -4.77   -1.47  CO2
  Dolomite         -9.66    -26.75  -17.09  CaMg(CO3)2
  Gibbsite          4.65     12.76    8.11  Al(OH)3
  Gypsum           -2.42     -7.00   -4.58  CaSO4:2H2O
  H2(g)           -41.15    -44.25   -3.10  H2
  H2O(g)           -1.50     -0.00    1.50  H2O
  H2S(g)         -137.38   -145.37   -7.99  H2S
  Illite           11.36    -28.91  -40.27  K0.6Mg0.25Al2.3Si3.5O10(OH)2
  K-feldspar        4.77    -15.81  -20.57  KAlSi3O8
  K-mica           19.69     32.39   12.70  KAl3Si3O10(OH)2
  Kaolinite        12.53     19.97    7.43  Al2Si2O5(OH)4
  O2(g)            -0.99     -3.89   -2.89  O2
  Quartz            1.20     -2.78   -3.98  SiO2
  Sepiolite        -7.06      8.70   15.76  Mg2Si3O7.5OH:3H2O
  Sepiolite(d)     -9.96      8.70   18.66  Mg2Si3O7.5OH:3H2O
  SiO2(a)          -0.07     -2.78   -2.71  SiO2
  Sulfur         -102.21    -97.33    4.88  S
  Talc             -6.95     14.44   21.40  Mg3Si4O10(OH)2

**For a gas, SI = log10(fugacity). Fugacity = pressure * phi / 1 atm.
  For ideal gases, phi = 1.

------------------
End of simulation.
------------------

------------------------------------
Reading input data for simulation 5.
------------------------------------

---------------------------------
End of Run after 5.81782 Seconds.
---------------------------------

