   Input file: /Users/aibao/Documents/Project/MiningReg/openminer/report/2026-05-30-phreeqc-waste-rock-weathering-rewrite/models/03_uranium_speciation_envelope.phr
  Output file: /Users/aibao/Documents/Project/MiningReg/openminer/report/2026-05-30-phreeqc-waste-rock-weathering-rewrite/models/03_uranium_speciation_envelope.out
Database file: /Users/aibao/.local/phreeqc/phreeqc-3.5.0-14000/database/llnl.dat

------------------
Reading data base.
------------------

	LLNL_AQUEOUS_MODEL_PARAMETERS
	NAMED_EXPRESSIONS
	SOLUTION_MASTER_SPECIES
	SOLUTION_SPECIES
	PHASES
	EXCHANGE_MASTER_SPECIES
	EXCHANGE_SPECIES
	SURFACE_MASTER_SPECIES
	SURFACE_SPECIES
	RATES
	END
------------------------------------
Reading input data for simulation 1.
------------------------------------

	TITLE U(VI) sulfate-carbonate speciation envelope for uranium waste-rock leachate
	SELECTED_OUTPUT 1
	    file /Users/aibao/Documents/Project/MiningReg/openminer/report/2026-05-30-phreeqc-waste-rock-weathering-rewrite/models/03_uranium_speciation_envelope.sel
	    reset false
	    simulation true
	    solution true
	    ph true
	    pe true
	    totals U S(6) C(4)
	    molalities UO2+2 UO2SO4 UO2(SO4)2-2 UO2CO3 UO2(CO3)2-2 UO2(CO3)3-4 UO2OH+ UO2(OH)2
	    saturation_indices Uraninite UO2CO3 UO2SO4 UO3:2H2O
	SOLUTION 1 pH3_sulfate_rich_low_carbonate
	    temp 25
	    pH 3
	    pe 8
	    units umol/kgw
	    U(6) 1
	    S(6) 10000 as SO4
	    C(4) 100 as HCO3
	    Na 10 charge
	END
-----
TITLE
-----

 U(VI) sulfate-carbonate speciation envelope for uranium waste-rock leachate

-------------------------------------------
Beginning of initial solution calculations.
-------------------------------------------

Initial solution 1.	pH3_sulfate_rich_low_carbonate

-----------------------------Solution composition------------------------------

	Elements           Molality       Moles

	C(4)              1.000e-04   1.000e-04
	Na                1.831e-02   1.831e-02  Charge balance
	S(6)              1.000e-02   1.000e-02
	U(6)              1.000e-06   1.000e-06

----------------------------Description of solution----------------------------

                                       pH  =   3.000    
                                       pe  =   8.000    
                        Activity of water  =   1.000
                 Ionic strength (mol/kgw)  =   2.779e-02
                       Mass of water (kg)  =   1.000e+00
                 Total alkalinity (eq/kg)  =  -1.692e-03
                       Total CO2 (mol/kg)  =   1.000e-04
                         Temperature (°C)  =  25.00
                  Electrical balance (eq)  =  -4.117e-18
 Percent error, 100*(Cat-|An|)/(Cat+|An|)  =  -0.00
                               Iterations  =   8
                                  Total H  = 1.110523e+02
                                  Total O  = 5.556553e+01

----------------------------Distribution of species----------------------------

                                               Log       Log       Log    mole V
   Species          Molality    Activity  Molality  Activity     Gamma   cmł/mol

   H+              1.137e-03   1.000e-03    -2.944    -3.000    -0.056      0.00
   OH-             1.132e-11   9.630e-12   -10.946   -11.016    -0.070     (0)  
   H2O             5.553e+01   9.995e-01     1.744    -0.000     0.000     18.07
C(4)          1.000e-04
   CO2             9.995e-05   1.006e-04    -4.000    -3.997     0.003     (0)  
   HCO3-           5.080e-08   4.336e-08    -7.294    -7.363    -0.069     (0)  
   NaHCO3          9.400e-10   9.400e-10    -9.027    -9.027     0.000     (0)  
   UO2CO3          1.203e-12   1.203e-12   -11.920   -11.920     0.000     (0)  
   CO3-2           3.602e-15   1.924e-15   -14.443   -14.716    -0.272     (0)  
   NaCO3-          1.195e-16   1.020e-16   -15.923   -15.991    -0.069     (0)  
   UO2(CO3)2-2     8.455e-20   4.452e-20   -19.073   -19.351    -0.279     (0)  
   (UO2)2CO3(OH)3-   4.717e-21   4.026e-21   -20.326   -20.395    -0.069     (0)  
   (UO2)3(OH)5CO2+   2.358e-26   2.013e-26   -25.627   -25.696    -0.069     (0)  
   (UO2)3O(OH)2(HCO3)+   1.902e-26   1.624e-26   -25.721   -25.789    -0.069     (0)  
   UO2(CO3)3-4     5.052e-29   3.853e-30   -28.297   -29.414    -1.118     (0)  
   (UO2)3(CO3)6-6   0.000e+00   0.000e+00   -52.385   -54.901    -2.516     (0)  
   (UO2)11(CO3)6(OH)12-2   0.000e+00   0.000e+00   -91.584   -91.862    -0.279     (0)  
H(0)          1.576e-25
   H2              7.882e-26   7.935e-26   -25.103   -25.100     0.003     (0)  
Na            1.831e-02
   Na+             1.776e-02   1.516e-02    -1.751    -1.819    -0.069     (0)  
   NaSO4-          5.495e-04   4.690e-04    -3.260    -3.329    -0.069     (0)  
   NaHCO3          9.400e-10   9.400e-10    -9.027    -9.027     0.000     (0)  
   NaOH            2.518e-14   2.518e-14   -13.599   -13.599     0.000     (0)  
   NaCO3-          1.195e-16   1.020e-16   -15.923   -15.991    -0.069     (0)  
O(0)          0.000e+00
   O2              0.000e+00   0.000e+00   -41.998   -41.996     0.003     (0)  
S(6)          1.000e-02
   SO4-2           8.895e-03   4.684e-03    -2.051    -2.329    -0.279     (0)  
   HSO4-           5.543e-04   4.731e-04    -3.256    -3.325    -0.069     (0)  
   NaSO4-          5.495e-04   4.690e-04    -3.260    -3.329    -0.069     (0)  
   UO2SO4          7.098e-07   7.098e-07    -6.149    -6.149     0.000     (0)  
   UO2(SO4)2-2     5.595e-08   2.946e-08    -7.252    -7.531    -0.279     (0)  
   H2SO4           4.464e-10   4.464e-10    -9.350    -9.350     0.000     (0)  
U(6)          1.000e-06
   UO2SO4          7.098e-07   7.098e-07    -6.149    -6.149     0.000     (0)  
   UO2+2           2.334e-07   1.246e-07    -6.632    -6.904    -0.272     (0)  
   UO2(SO4)2-2     5.595e-08   2.946e-08    -7.252    -7.531    -0.279     (0)  
   UO2OH+          9.034e-10   7.711e-10    -9.044    -9.113    -0.069     (0)  
   UO2(OH)2        6.034e-12   6.034e-12   -11.219   -11.219     0.000     (0)  
   UO2CO3          1.203e-12   1.203e-12   -11.920   -11.920     0.000     (0)  
   (UO2)2OH+3      1.216e-13   3.047e-14   -12.915   -13.516    -0.601     (0)  
   (UO2)2(OH)2+2   6.757e-14   3.608e-14   -13.170   -13.443    -0.272     (0)  
   UO2(OH)3-       8.750e-18   7.468e-18   -17.058   -17.127    -0.069     (0)  
   UO2(CO3)2-2     8.455e-20   4.452e-20   -19.073   -19.351    -0.279     (0)  
   (UO2)2CO3(OH)3-   4.717e-21   4.026e-21   -20.326   -20.395    -0.069     (0)  
   (UO2)3(OH)4+2   4.261e-21   2.276e-21   -20.370   -20.643    -0.272     (0)  
   (UO2)3(OH)5+    5.765e-22   4.921e-22   -21.239   -21.308    -0.069     (0)  
   (UO2)3(OH)5CO2+   2.358e-26   2.013e-26   -25.627   -25.696    -0.069     (0)  
   (UO2)3O(OH)2(HCO3)+   1.902e-26   1.624e-26   -25.721   -25.789    -0.069     (0)  
   UO2(OH)4-2      2.209e-28   1.163e-28   -27.656   -27.934    -0.279     (0)  
   UO2(CO3)3-4     5.052e-29   3.853e-30   -28.297   -29.414    -1.118     (0)  
   (UO2)4(OH)7+    3.156e-29   2.694e-29   -28.501   -28.570    -0.069     (0)  
   (UO2)3(OH)7-    2.011e-31   1.717e-31   -30.697   -30.765    -0.069     (0)  
   (UO2)3(CO3)6-6   0.000e+00   0.000e+00   -52.385   -54.901    -2.516     (0)  
   (UO2)11(CO3)6(OH)12-2   0.000e+00   0.000e+00   -91.584   -91.862    -0.279     (0)  

------------------------------Saturation indices-------------------------------

  Phase               SI** log IAP   log K(298 K,   1 atm)

  Burkeite        -29.42    -19.94    9.49  Na6CO3(SO4)2
  C               -32.51     31.63   64.15  C
  C(g)           -150.13     31.63  181.77  C
  CO2(g)           -2.53    -10.36   -7.83  CO2
  H2(g)           -22.00    -25.10   -3.10  H2
  H2O(g)           -1.59     -0.00    1.59  H2O
  Ice              -0.14     -0.00    0.14  H2O
  Mirabilite       -4.82     -5.97   -1.15  Na2SO4:10H2O
  Na              -55.69     11.68   67.37  Na
  Na(g)           -69.18     11.68   80.86  Na
  Na2CO3          -19.16     -8.00   11.16  Na2CO3
  Na2CO3:7H2O     -17.94     -8.00    9.94  Na2CO3:7H2O
  Na2O            -65.06      2.36   67.42  Na2O
  Na2U2O7         -22.04      0.55   22.59  Na2U2O7
  Na2UO4(alpha)   -28.56      1.46   30.02  Na2UO4
  Na3H(SO4)2      -12.23    -13.12   -0.89  Na3H(SO4)2
  Na4UO2(CO3)3    -31.31    -27.27    4.04  Na4UO2(CO3)3
  Nahcolite        -9.04     -9.18   -0.14  NaHCO3
  Natron          -17.59     -8.00    9.59  Na2CO3:10H2O
  O2(g)           -39.10    -42.00   -2.89  O2
  Rutherfordine    -7.15    -11.27   -4.12  UO2CO3
  Schoepite        -5.74     -0.90    4.83  UO3:2H2O
  Schoepite-dehy(.393)  -7.63     -0.90    6.72  UO3:.393H2O
  Schoepite-dehy(.648)  -7.11     -0.90    6.21  UO3:.648H2O
  Schoepite-dehy(.85)  -6.00     -0.90    5.10  UO3:.85H2O
  Schoepite-dehy(.9)  -5.92     -0.90    5.02  UO3:.9H2O
  Schoepite-dehy(1.0)  -6.01     -0.90    5.10  UO3:H2O
  Thenardite       -5.61     -5.97   -0.36  Na2SO4
  Thermonatrite   -18.94     -8.00   10.94  Na2CO3:H2O
  U              -150.68     62.09  212.77  U
  U(g)           -236.23     62.09  298.32  U
  UO(g)          -170.56     41.09  211.65  UO
  UO2(g)         -105.50     20.09  125.60  UO2
  UO2(OH)2(beta)   -5.85     -0.90    4.95  UO2(OH)2
  UO2CO3           -7.14    -11.27   -4.13  UO2CO3
  UO2SO4          -11.16     -9.23    1.93  UO2SO4
  UO2SO4:2.5H2O    -7.73     -9.23   -1.50  UO2SO4:2.5H2O
  UO2SO4:3.5H2O    -7.74     -9.23   -1.49  UO2SO4:3.5H2O
  UO2SO4:3H2O      -7.82     -9.23   -1.41  UO2SO4:3H2O
  UO2SO4:H2O       -3.17     -9.23   -6.07  UO2SO4:H2O
  UO3(alpha)       -9.54     -0.90    8.64  UO3
  UO3(beta)        -9.22     -0.90    8.31  UO3
  UO3(g)          -71.85     -0.90   70.95  UO3
  UO3(gamma)       -8.61     -0.90    7.71  UO3
  UO3:.9H2O(alpha)  -5.92     -0.90    5.02  UO3:.9H2O
  UO3:2H2O         -5.74     -0.90    4.84  UO3:2H2O

**For a gas, SI = log10(fugacity). Fugacity = pressure * phi / 1 atm.
  For ideal gases, phi = 1.

------------------
End of simulation.
------------------

------------------------------------
Reading input data for simulation 2.
------------------------------------

	SOLUTION 2 pH4_sulfate_rich_low_carbonate
	    temp 25
	    pH 4
	    pe 8
	    units umol/kgw
	    U(6) 1
	    S(6) 10000 as SO4
	    C(4) 100 as HCO3
	    Na 10 charge
	END
-------------------------------------------
Beginning of initial solution calculations.
-------------------------------------------

Initial solution 2.	pH4_sulfate_rich_low_carbonate

-----------------------------Solution composition------------------------------

	Elements           Molality       Moles

	C(4)              1.000e-04   1.000e-04
	Na                1.983e-02   1.983e-02  Charge balance
	S(6)              1.000e-02   1.000e-02
	U(6)              1.000e-06   1.000e-06

----------------------------Description of solution----------------------------

                                       pH  =   4.000    
                                       pe  =   8.000    
                        Activity of water  =   0.999
                 Ionic strength (mol/kgw)  =   2.865e-02
                       Mass of water (kg)  =   1.000e+00
                 Total alkalinity (eq/kg)  =  -1.711e-04
                       Total CO2 (mol/kg)  =   1.000e-04
                         Temperature (°C)  =  25.00
                  Electrical balance (eq)  =   1.036e-10
 Percent error, 100*(Cat-|An|)/(Cat+|An|)  =   0.00
                               Iterations  =   7
                                  Total H  = 1.110508e+02
                                  Total O  = 5.556553e+01

----------------------------Distribution of species----------------------------

                                               Log       Log       Log    mole V
   Species          Molality    Activity  Molality  Activity     Gamma   cmł/mol

   H+              1.139e-04   1.000e-04    -3.944    -4.000    -0.056      0.00
   OH-             1.135e-10   9.630e-11    -9.945   -10.016    -0.071     (0)  
   H2O             5.553e+01   9.995e-01     1.744    -0.000     0.000     18.07
C(4)          1.000e-04
   CO2             9.948e-05   1.002e-04    -4.002    -3.999     0.003     (0)  
   HCO3-           5.067e-07   4.317e-07    -6.295    -6.365    -0.070     (0)  
   NaHCO3          1.010e-08   1.010e-08    -7.996    -7.996     0.000     (0)  
   UO2CO3          1.147e-10   1.147e-10    -9.940    -9.940     0.000     (0)  
   CO3-2           3.613e-13   1.915e-13   -12.442   -12.718    -0.276     (0)  
   NaCO3-          1.287e-14   1.096e-14   -13.890   -13.960    -0.070     (0)  
   UO2(CO3)2-2     8.091e-16   4.227e-16   -15.092   -15.374    -0.282     (0)  
   (UO2)2CO3(OH)3-   4.317e-16   3.678e-16   -15.365   -15.434    -0.070     (0)  
   (UO2)3(OH)5CO2+   2.068e-21   1.761e-21   -20.685   -20.754    -0.070     (0)  
   (UO2)3O(OH)2(HCO3)+   1.668e-21   1.421e-21   -20.778   -20.847    -0.070     (0)  
   UO2(CO3)3-4     4.931e-23   3.642e-24   -22.307   -23.439    -1.132     (0)  
   (UO2)3(CO3)6-6   0.000e+00   0.000e+00   -40.421   -42.969    -2.548     (0)  
   (UO2)11(CO3)6(OH)12-2   0.000e+00   0.000e+00   -67.797   -68.079    -0.282     (0)  
H(0)          1.576e-27
   H2              7.880e-28   7.935e-28   -27.103   -27.100     0.003     (0)  
Na            1.983e-02
   Na+             1.921e-02   1.636e-02    -1.717    -1.786    -0.070     (0)  
   NaSO4-          6.181e-04   5.265e-04    -3.209    -3.279    -0.070     (0)  
   NaHCO3          1.010e-08   1.010e-08    -7.996    -7.996     0.000     (0)  
   NaOH            2.719e-13   2.719e-13   -12.566   -12.566     0.000     (0)  
   NaCO3-          1.287e-14   1.096e-14   -13.890   -13.960    -0.070     (0)  
O(0)          2.007e-38
   O2              1.003e-38   1.010e-38   -37.999   -37.996     0.003     (0)  
S(6)          1.000e-02
   SO4-2           9.323e-03   4.870e-03    -2.030    -2.312    -0.282     (0)  
   NaSO4-          6.181e-04   5.265e-04    -3.209    -3.279    -0.070     (0)  
   HSO4-           5.775e-05   4.920e-05    -4.238    -4.308    -0.070     (0)  
   UO2SO4          7.069e-07   7.069e-07    -6.151    -6.151     0.000     (0)  
   UO2(SO4)2-2     5.841e-08   3.051e-08    -7.234    -7.516    -0.282     (0)  
   H2SO4           4.642e-12   4.642e-12   -11.333   -11.333     0.000     (0)  
U(6)          1.000e-06
   UO2SO4          7.069e-07   7.069e-07    -6.151    -6.151     0.000     (0)  
   UO2+2           2.253e-07   1.194e-07    -6.647    -6.923    -0.276     (0)  
   UO2(SO4)2-2     5.841e-08   3.051e-08    -7.234    -7.516    -0.282     (0)  
   UO2OH+          8.671e-09   7.386e-09    -8.062    -8.132    -0.070     (0)  
   UO2(OH)2        5.780e-10   5.780e-10    -9.238    -9.238     0.000     (0)  
   UO2CO3          1.147e-10   1.147e-10    -9.940    -9.940     0.000     (0)  
   (UO2)2(OH)2+2   6.247e-12   3.311e-12   -11.204   -11.480    -0.276     (0)  
   (UO2)2OH+3      1.135e-12   2.796e-13   -11.945   -12.553    -0.608     (0)  
   UO2(OH)3-       8.398e-15   7.154e-15   -14.076   -14.145    -0.070     (0)  
   UO2(CO3)2-2     8.091e-16   4.227e-16   -15.092   -15.374    -0.282     (0)  
   (UO2)2CO3(OH)3-   4.317e-16   3.678e-16   -15.365   -15.434    -0.070     (0)  
   (UO2)3(OH)5+    5.077e-17   4.325e-17   -16.294   -16.364    -0.070     (0)  
   (UO2)3(OH)4+2   3.774e-17   2.000e-17   -16.423   -16.699    -0.276     (0)  
   (UO2)3(OH)5CO2+   2.068e-21   1.761e-21   -20.685   -20.754    -0.070     (0)  
   (UO2)3O(OH)2(HCO3)+   1.668e-21   1.421e-21   -20.778   -20.847    -0.070     (0)  
   (UO2)4(OH)7+    2.662e-22   2.268e-22   -21.575   -21.644    -0.070     (0)  
   UO2(CO3)3-4     4.931e-23   3.642e-24   -22.307   -23.439    -1.132     (0)  
   UO2(OH)4-2      2.133e-24   1.114e-24   -23.671   -23.953    -0.282     (0)  
   (UO2)3(OH)7-    1.771e-24   1.509e-24   -23.752   -23.821    -0.070     (0)  
   (UO2)3(CO3)6-6   0.000e+00   0.000e+00   -40.421   -42.969    -2.548     (0)  
   (UO2)11(CO3)6(OH)12-2   0.000e+00   0.000e+00   -67.797   -68.079    -0.282     (0)  

------------------------------Saturation indices-------------------------------

  Phase               SI** log IAP   log K(298 K,   1 atm)

  Burkeite        -27.19    -17.71    9.49  Na6CO3(SO4)2
  C               -36.52     27.63   64.15  C
  C(g)           -154.13     27.63  181.77  C
  CO2(g)           -2.54    -10.36   -7.83  CO2
  H2(g)           -24.00    -27.10   -3.10  H2
  H2O(g)           -1.59     -0.00    1.59  H2O
  Ice              -0.14     -0.00    0.14  H2O
  Mirabilite       -4.73     -5.89   -1.15  Na2SO4:10H2O
  Na              -55.66     11.71   67.37  Na
  Na(g)           -69.15     11.71   80.86  Na
  Na2CO3          -17.10     -5.94   11.16  Na2CO3
  Na2CO3:7H2O     -15.88     -5.94    9.94  Na2CO3:7H2O
  Na2O            -62.99      4.43   67.42  Na2O
  Na2U2O7         -16.01      6.58   22.59  Na2U2O7
  Na2UO4(alpha)   -24.51      5.50   30.02  Na2UO4
  Na3H(SO4)2      -13.09    -13.98   -0.89  Na3H(SO4)2
  Na4UO2(CO3)3    -25.20    -21.16    4.04  Na4UO2(CO3)3
  Nahcolite        -8.01     -8.15   -0.14  NaHCO3
  Natron          -15.53     -5.94    9.59  Na2CO3:10H2O
  O2(g)           -35.10    -38.00   -2.89  O2
  Rutherfordine    -5.17     -9.29   -4.12  UO2CO3
  Schoepite        -3.76      1.08    4.83  UO3:2H2O
  Schoepite-dehy(.393)  -5.65      1.08    6.72  UO3:.393H2O
  Schoepite-dehy(.648)  -5.13      1.08    6.21  UO3:.648H2O
  Schoepite-dehy(.85)  -4.02      1.08    5.10  UO3:.85H2O
  Schoepite-dehy(.9)  -3.94      1.08    5.02  UO3:.9H2O
  Schoepite-dehy(1.0)  -4.03      1.08    5.10  UO3:H2O
  Thenardite       -5.53     -5.88   -0.36  Na2SO4
  Thermonatrite   -16.87     -5.94   10.94  Na2CO3:H2O
  U              -154.70     58.07  212.77  U
  U(g)           -240.25     58.07  298.32  U
  UO(g)          -172.57     39.07  211.65  UO
  UO2(g)         -105.52     20.07  125.60  UO2
  UO2(OH)2(beta)   -3.87      1.08    4.95  UO2(OH)2
  UO2CO3           -5.16     -9.29   -4.13  UO2CO3
  UO2SO4          -11.16     -9.24    1.93  UO2SO4
  UO2SO4:2.5H2O    -7.73     -9.24   -1.50  UO2SO4:2.5H2O
  UO2SO4:3.5H2O    -7.75     -9.24   -1.49  UO2SO4:3.5H2O
  UO2SO4:3H2O      -7.82     -9.24   -1.41  UO2SO4:3H2O
  UO2SO4:H2O       -3.17     -9.24   -6.07  UO2SO4:H2O
  UO3(alpha)       -7.56      1.08    8.64  UO3
  UO3(beta)        -7.23      1.08    8.31  UO3
  UO3(g)          -69.87      1.08   70.95  UO3
  UO3(gamma)       -6.63      1.08    7.71  UO3
  UO3:.9H2O(alpha)  -3.94      1.08    5.02  UO3:.9H2O
  UO3:2H2O         -3.76      1.08    4.84  UO3:2H2O

**For a gas, SI = log10(fugacity). Fugacity = pressure * phi / 1 atm.
  For ideal gases, phi = 1.

------------------
End of simulation.
------------------

------------------------------------
Reading input data for simulation 3.
------------------------------------

	SOLUTION 3 pH6_mixed_sulfate_carbonate
	    temp 25
	    pH 6
	    pe 8
	    units umol/kgw
	    U(6) 1
	    S(6) 1000 as SO4
	    C(4) 1000 as HCO3
	    Na 10 charge
	END
-------------------------------------------
Beginning of initial solution calculations.
-------------------------------------------

Initial solution 3.	pH6_mixed_sulfate_carbonate

-----------------------------Solution composition------------------------------

	Elements           Molality       Moles

	C(4)              1.000e-03   1.000e-03
	Na                2.314e-03   2.314e-03  Charge balance
	S(6)              1.000e-03   1.000e-03
	U(6)              1.000e-06   1.000e-06

----------------------------Description of solution----------------------------

                                       pH  =   6.000    
                                       pe  =   8.000    
                        Activity of water  =   1.000
                 Ionic strength (mol/kgw)  =   3.291e-03
                       Mass of water (kg)  =   1.000e+00
                 Total alkalinity (eq/kg)  =   3.163e-04
                       Total CO2 (mol/kg)  =   1.000e-03
                         Temperature (°C)  =  25.00
                  Electrical balance (eq)  =  -3.862e-18
 Percent error, 100*(Cat-|An|)/(Cat+|An|)  =  -0.00
                               Iterations  =  14
                                  Total H  = 1.110510e+02
                                  Total O  = 5.553164e+01

----------------------------Distribution of species----------------------------

                                               Log       Log       Log    mole V
   Species          Molality    Activity  Molality  Activity     Gamma   cmł/mol

   H+              1.059e-06   1.000e-06    -5.975    -6.000    -0.025      0.00
   OH-             1.026e-08   9.634e-09    -7.989    -8.016    -0.027     (0)  
   H2O             5.553e+01   9.999e-01     1.744    -0.000     0.000     18.07
C(4)          1.000e-03
   CO2             6.841e-04   6.847e-04    -3.165    -3.165     0.000     (0)  
   HCO3-           3.142e-04   2.952e-04    -3.503    -3.530    -0.027     (0)  
   NaHCO3          9.129e-07   9.129e-07    -6.040    -6.040     0.000     (0)  
   UO2CO3          3.936e-07   3.936e-07    -6.405    -6.405     0.000     (0)  
   UO2(CO3)2-2     1.274e-07   9.915e-08    -6.895    -7.004    -0.109     (0)  
   (UO2)2CO3(OH)3-   6.747e-08   6.338e-08    -7.171    -7.198    -0.027     (0)  
   CO3-2           1.679e-08   1.310e-08    -7.775    -7.883    -0.108     (0)  
   UO2(CO3)3-4     1.596e-10   5.842e-11    -9.797   -10.233    -0.436     (0)  
   NaCO3-          1.055e-10   9.907e-11    -9.977   -10.004    -0.027     (0)  
   (UO2)3(OH)5CO2+   1.622e-14   1.524e-14   -13.790   -13.817    -0.027     (0)  
   (UO2)3O(OH)2(HCO3)+   1.308e-14   1.229e-14   -13.883   -13.911    -0.027     (0)  
   (UO2)3(CO3)6-6   1.331e-17   1.388e-18   -16.876   -17.858    -0.982     (0)  
   (UO2)11(CO3)6(OH)12-2   5.575e-30   4.338e-30   -29.254   -29.363    -0.109     (0)  
H(0)          1.586e-31
   H2              7.929e-32   7.935e-32   -31.101   -31.100     0.000     (0)  
Na            2.314e-03
   Na+             2.302e-03   2.162e-03    -2.638    -2.665    -0.027     (0)  
   NaSO4-          1.169e-05   1.098e-05    -4.932    -4.959    -0.027     (0)  
   NaHCO3          9.129e-07   9.129e-07    -6.040    -6.040     0.000     (0)  
   NaCO3-          1.055e-10   9.907e-11    -9.977   -10.004    -0.027     (0)  
   NaOH            3.594e-12   3.594e-12   -11.444   -11.444     0.000     (0)  
O(0)          2.021e-30
   O2              1.010e-30   1.011e-30   -29.995   -29.995     0.000     (0)  
S(6)          1.000e-03
   SO4-2           9.882e-04   7.689e-04    -3.005    -3.114    -0.109     (0)  
   NaSO4-          1.169e-05   1.098e-05    -4.932    -4.959    -0.027     (0)  
   HSO4-           8.268e-08   7.767e-08    -7.083    -7.110    -0.027     (0)  
   UO2SO4          5.599e-09   5.599e-09    -8.252    -8.252     0.000     (0)  
   UO2(SO4)2-2     4.904e-11   3.816e-11   -10.309   -10.418    -0.109     (0)  
   H2SO4           7.328e-17   7.328e-17   -16.135   -16.135     0.000     (0)  
U(6)          1.000e-06
   UO2CO3          3.936e-07   3.936e-07    -6.405    -6.405     0.000     (0)  
   UO2(OH)2        2.903e-07   2.903e-07    -6.537    -6.537     0.000     (0)  
   UO2(CO3)2-2     1.274e-07   9.915e-08    -6.895    -7.004    -0.109     (0)  
   (UO2)2CO3(OH)3-   6.747e-08   6.338e-08    -7.171    -7.198    -0.027     (0)  
   UO2OH+          3.947e-08   3.707e-08    -7.404    -7.431    -0.027     (0)  
   UO2+2           7.682e-09   5.990e-09    -8.115    -8.223    -0.108     (0)  
   UO2SO4          5.599e-09   5.599e-09    -8.252    -8.252     0.000     (0)  
   UO2(OH)3-       3.826e-10   3.594e-10    -9.417    -9.444    -0.027     (0)  
   UO2(CO3)3-4     1.596e-10   5.842e-11    -9.797   -10.233    -0.436     (0)  
   (UO2)2(OH)2+2   1.070e-10   8.342e-11    -9.971   -10.079    -0.108     (0)  
   (UO2)3(OH)5+    5.827e-11   5.474e-11   -10.235   -10.262    -0.027     (0)  
   UO2(SO4)2-2     4.904e-11   3.816e-11   -10.309   -10.418    -0.109     (0)  
   (UO2)3(OH)4+2   3.245e-13   2.531e-13   -12.489   -12.597    -0.108     (0)  
   (UO2)4(OH)7+    1.534e-13   1.441e-13   -12.814   -12.841    -0.027     (0)  
   (UO2)2OH+3      1.227e-13   7.042e-14   -12.911   -13.152    -0.241     (0)  
   (UO2)3(OH)7-    2.035e-14   1.911e-14   -13.692   -13.719    -0.027     (0)  
   (UO2)3(OH)5CO2+   1.622e-14   1.524e-14   -13.790   -13.817    -0.027     (0)  
   (UO2)3O(OH)2(HCO3)+   1.308e-14   1.229e-14   -13.883   -13.911    -0.027     (0)  
   (UO2)3(CO3)6-6   1.331e-17   1.388e-18   -16.876   -17.858    -0.982     (0)  
   UO2(OH)4-2      7.198e-18   5.600e-18   -17.143   -17.252    -0.109     (0)  
   (UO2)11(CO3)6(OH)12-2   5.575e-30   4.338e-30   -29.254   -29.363    -0.109     (0)  

------------------------------Saturation indices-------------------------------

  Phase               SI** log IAP   log K(298 K,   1 atm)

  Burkeite        -29.24    -19.75    9.49  Na6CO3(SO4)2
  C               -43.68     20.47   64.15  C
  C(g)           -161.30     20.47  181.77  C
  CO2(g)           -1.70     -9.53   -7.83  CO2
  H2(g)           -28.00    -31.10   -3.10  H2
  H2O(g)           -1.59     -0.00    1.59  H2O
  Ice              -0.14     -0.00    0.14  H2O
  Mirabilite       -7.29     -8.44   -1.15  Na2SO4:10H2O
  Na              -56.54     10.83   67.37  Na
  Na(g)           -70.03     10.83   80.86  Na
  Na2CO3          -14.02     -2.86   11.16  Na2CO3
  Na2CO3:7H2O     -12.80     -2.86    9.94  Na2CO3:7H2O
  Na2O            -60.75      6.67   67.42  Na2O
  Na2U2O7          -8.36     14.22   22.59  Na2U2O7
  Na2UO4(alpha)   -19.57     10.45   30.02  Na2UO4
  Na3H(SO4)2      -19.33    -20.22   -0.89  Na3H(SO4)2
  Na4UO2(CO3)3    -15.51    -11.47    4.04  Na4UO2(CO3)3
  Nahcolite        -6.05     -6.20   -0.14  NaHCO3
  Natron          -12.45     -2.86    9.59  Na2CO3:10H2O
  O2(g)           -27.10    -30.00   -2.89  O2
  Rutherfordine    -1.63     -5.75   -4.12  UO2CO3
  Schoepite        -1.06      3.78    4.83  UO3:2H2O
  Schoepite-dehy(.393)  -2.95      3.78    6.72  UO3:.393H2O
  Schoepite-dehy(.648)  -2.43      3.78    6.21  UO3:.648H2O
  Schoepite-dehy(.85)  -1.32      3.78    5.10  UO3:.85H2O
  Schoepite-dehy(.9)  -1.24      3.78    5.02  UO3:.9H2O
  Schoepite-dehy(1.0)  -1.33      3.78    5.10  UO3:H2O
  Thenardite       -8.09     -8.44   -0.36  Na2SO4
  Thermonatrite   -13.80     -2.86   10.94  Na2CO3:H2O
  U              -164.00     48.77  212.77  U
  U(g)           -249.55     48.77  298.32  U
  UO(g)          -177.87     33.77  211.65  UO
  UO2(g)         -106.82     18.77  125.60  UO2
  UO2(OH)2(beta)   -1.17      3.78    4.95  UO2(OH)2
  UO2CO3           -1.62     -5.75   -4.13  UO2CO3
  UO2SO4          -13.27    -11.34    1.93  UO2SO4
  UO2SO4:2.5H2O    -9.84    -11.34   -1.50  UO2SO4:2.5H2O
  UO2SO4:3.5H2O    -9.85    -11.34   -1.49  UO2SO4:3.5H2O
  UO2SO4:3H2O      -9.93    -11.34   -1.41  UO2SO4:3H2O
  UO2SO4:H2O       -5.27    -11.34   -6.07  UO2SO4:H2O
  UO3(alpha)       -4.86      3.78    8.64  UO3
  UO3(beta)        -4.53      3.78    8.31  UO3
  UO3(g)          -67.17      3.78   70.95  UO3
  UO3(gamma)       -3.93      3.78    7.71  UO3
  UO3:.9H2O(alpha)  -1.24      3.78    5.02  UO3:.9H2O
  UO3:2H2O         -1.06      3.78    4.84  UO3:2H2O

**For a gas, SI = log10(fugacity). Fugacity = pressure * phi / 1 atm.
  For ideal gases, phi = 1.

------------------
End of simulation.
------------------

------------------------------------
Reading input data for simulation 4.
------------------------------------

	SOLUTION 4 pH7_carbonate_rich
	    temp 25
	    pH 7
	    pe 8
	    units umol/kgw
	    U(6) 1
	    S(6) 1000 as SO4
	    C(4) 2000 as HCO3
	    Na 10 charge
	END
-------------------------------------------
Beginning of initial solution calculations.
-------------------------------------------

Initial solution 4.	pH7_carbonate_rich

-----------------------------Solution composition------------------------------

	Elements           Molality       Moles

	C(4)              2.000e-03   2.000e-03
	Na                3.648e-03   3.648e-03  Charge balance
	S(6)              1.000e-03   1.000e-03
	U(6)              1.000e-06   1.000e-06

----------------------------Description of solution----------------------------

                                       pH  =   7.000    
                                       pe  =   8.000    
                        Activity of water  =   1.000
                 Ionic strength (mol/kgw)  =   4.608e-03
                       Mass of water (kg)  =   1.000e+00
                 Total alkalinity (eq/kg)  =   1.650e-03
                       Total CO2 (mol/kg)  =   2.000e-03
                         Temperature (°C)  =  25.00
                  Electrical balance (eq)  =   4.113e-11
 Percent error, 100*(Cat-|An|)/(Cat+|An|)  =   0.00
                               Iterations  =  11
                                  Total H  = 1.110523e+02
                                  Total O  = 5.553497e+01

----------------------------Distribution of species----------------------------

                                               Log       Log       Log    mole V
   Species          Molality    Activity  Molality  Activity     Gamma   cmł/mol

   H+              1.068e-07   1.000e-07    -6.971    -7.000    -0.029      0.00
   OH-             1.037e-07   9.634e-08    -6.984    -7.016    -0.032     (0)  
   H2O             5.553e+01   9.999e-01     1.744    -0.000     0.000     18.07
C(4)          2.000e-03
   HCO3-           1.637e-03   1.522e-03    -2.786    -2.818    -0.032     (0)  
   CO2             3.527e-04   3.531e-04    -3.453    -3.452     0.000     (0)  
   NaHCO3          7.333e-06   7.333e-06    -5.135    -5.135     0.000     (0)  
   CO3-2           9.025e-07   6.753e-07    -6.045    -6.171    -0.126     (0)  
   UO2(CO3)2-2     7.938e-07   5.921e-07    -6.100    -6.228    -0.127     (0)  
   UO2(CO3)3-4     5.818e-08   1.799e-08    -7.235    -7.745    -0.510     (0)  
   UO2CO3          4.559e-08   4.559e-08    -7.341    -7.341     0.000     (0)  
   (UO2)2CO3(OH)3-   1.773e-08   1.648e-08    -7.751    -7.783    -0.032     (0)  
   NaCO3-          8.560e-09   7.958e-09    -8.068    -8.099    -0.032     (0)  
   (UO2)3(CO3)6-6   4.147e-15   2.956e-16   -14.382   -15.529    -1.147     (0)  
   (UO2)3(OH)5CO2+   9.573e-18   8.899e-18   -17.019   -17.051    -0.032     (0)  
   (UO2)3O(OH)2(HCO3)+   7.720e-18   7.177e-18   -17.112   -17.144    -0.032     (0)  
   (UO2)11(CO3)6(OH)12-2   8.014e-37   5.978e-37   -36.096   -36.223    -0.127     (0)  
H(0)          1.585e-33
   H2              7.926e-34   7.935e-34   -33.101   -33.100     0.000     (0)  
Na            3.648e-03
   Na+             3.623e-03   3.368e-03    -2.441    -2.473    -0.032     (0)  
   NaSO4-          1.754e-05   1.631e-05    -4.756    -4.788    -0.032     (0)  
   NaHCO3          7.333e-06   7.333e-06    -5.135    -5.135     0.000     (0)  
   NaCO3-          8.560e-09   7.958e-09    -8.068    -8.099    -0.032     (0)  
   NaOH            5.599e-11   5.599e-11   -10.252   -10.252     0.000     (0)  
O(0)          2.020e-26
   O2              1.010e-26   1.011e-26   -25.996   -25.995     0.000     (0)  
S(6)          1.000e-03
   SO4-2           9.824e-04   7.329e-04    -3.008    -3.135    -0.127     (0)  
   NaSO4-          1.754e-05   1.631e-05    -4.756    -4.788    -0.032     (0)  
   HSO4-           7.963e-09   7.403e-09    -8.099    -8.131    -0.032     (0)  
   UO2SO4          1.199e-11   1.199e-11   -10.921   -10.921     0.000     (0)  
   UO2(SO4)2-2     1.044e-13   7.785e-14   -12.981   -13.109    -0.127     (0)  
   H2SO4           6.984e-19   6.984e-19   -18.156   -18.156     0.000     (0)  
U(6)          1.000e-06
   UO2(CO3)2-2     7.938e-07   5.921e-07    -6.100    -6.228    -0.127     (0)  
   UO2(OH)2        6.518e-08   6.518e-08    -7.186    -7.186     0.000     (0)  
   UO2(CO3)3-4     5.818e-08   1.799e-08    -7.235    -7.745    -0.510     (0)  
   UO2CO3          4.559e-08   4.559e-08    -7.341    -7.341     0.000     (0)  
   (UO2)2CO3(OH)3-   1.773e-08   1.648e-08    -7.751    -7.783    -0.032     (0)  
   UO2OH+          8.956e-10   8.326e-10    -9.048    -9.080    -0.032     (0)  
   UO2(OH)3-       8.681e-10   8.070e-10    -9.061    -9.093    -0.032     (0)  
   UO2+2           1.798e-11   1.345e-11   -10.745   -10.871    -0.126     (0)  
   UO2SO4          1.199e-11   1.199e-11   -10.921   -10.921     0.000     (0)  
   UO2(SO4)2-2     1.044e-13   7.785e-14   -12.981   -13.109    -0.127     (0)  
   (UO2)3(OH)5+    6.669e-14   6.200e-14   -13.176   -13.208    -0.032     (0)  
   (UO2)2(OH)2+2   5.623e-14   4.207e-14   -13.250   -13.376    -0.126     (0)  
   (UO2)3(CO3)6-6   4.147e-15   2.956e-16   -14.382   -15.529    -1.147     (0)  
   (UO2)3(OH)7-    2.328e-15   2.165e-15   -14.633   -14.665    -0.032     (0)  
   UO2(OH)4-2      1.686e-16   1.258e-16   -15.773   -15.900    -0.127     (0)  
   (UO2)4(OH)7+    3.944e-17   3.666e-17   -16.404   -16.436    -0.032     (0)  
   (UO2)3(OH)4+2   3.831e-17   2.866e-17   -16.417   -16.543    -0.126     (0)  
   (UO2)3(OH)5CO2+   9.573e-18   8.899e-18   -17.019   -17.051    -0.032     (0)  
   (UO2)3O(OH)2(HCO3)+   7.720e-18   7.177e-18   -17.112   -17.144    -0.032     (0)  
   (UO2)2OH+3      6.781e-18   3.552e-18   -17.169   -17.450    -0.281     (0)  
   (UO2)11(CO3)6(OH)12-2   8.014e-37   5.978e-37   -36.096   -36.223    -0.127     (0)  

------------------------------Saturation indices-------------------------------

  Phase               SI** log IAP   log K(298 K,   1 atm)

  Burkeite        -26.41    -16.92    9.49  Na6CO3(SO4)2
  C               -47.97     16.18   64.15  C
  C(g)           -165.59     16.18  181.77  C
  CO2(g)           -1.99     -9.82   -7.83  CO2
  H2(g)           -30.00    -33.10   -3.10  H2
  H2O(g)           -1.59     -0.00    1.59  H2O
  Ice              -0.14     -0.00    0.14  H2O
  Mirabilite       -6.93     -8.08   -1.15  Na2SO4:10H2O
  Na              -56.34     11.03   67.37  Na
  Na(g)           -69.83     11.03   80.86  Na
  Na2CO3          -11.93     -0.76   11.16  Na2CO3
  Na2CO3:7H2O     -10.70     -0.76    9.94  Na2CO3:7H2O
  Na2O            -58.36      9.05   67.42  Na2O
  Na2U2O7          -7.28     15.31   22.59  Na2U2O7
  Na2UO4(alpha)   -17.83     12.18   30.02  Na2UO4
  Na3H(SO4)2      -19.80    -20.69   -0.89  Na3H(SO4)2
  Na4UO2(CO3)3    -12.25     -8.21    4.04  Na4UO2(CO3)3
  Nahcolite        -5.15     -5.29   -0.14  NaHCO3
  Natron          -10.35     -0.76    9.59  Na2CO3:10H2O
  O2(g)           -23.10    -26.00   -2.89  O2
  Rutherfordine    -2.57     -6.69   -4.12  UO2CO3
  Schoepite        -1.71      3.13    4.83  UO3:2H2O
  Schoepite-dehy(.393)  -3.60      3.13    6.72  UO3:.393H2O
  Schoepite-dehy(.648)  -3.08      3.13    6.21  UO3:.648H2O
  Schoepite-dehy(.85)  -1.97      3.13    5.10  UO3:.85H2O
  Schoepite-dehy(.9)  -1.89      3.13    5.02  UO3:.9H2O
  Schoepite-dehy(1.0)  -1.98      3.13    5.10  UO3:H2O
  Thenardite       -7.72     -8.08   -0.36  Na2SO4
  Thermonatrite   -11.70     -0.76   10.94  Na2CO3:H2O
  U              -170.64     42.12  212.77  U
  U(g)           -256.20     42.12  298.32  U
  UO(g)          -182.52     29.12  211.65  UO
  UO2(g)         -109.47     16.13  125.60  UO2
  UO2(OH)2(beta)   -1.82      3.13    4.95  UO2(OH)2
  UO2CO3           -2.56     -6.69   -4.13  UO2CO3
  UO2SO4          -15.94    -14.01    1.93  UO2SO4
  UO2SO4:2.5H2O   -12.51    -14.01   -1.50  UO2SO4:2.5H2O
  UO2SO4:3.5H2O   -12.52    -14.01   -1.49  UO2SO4:3.5H2O
  UO2SO4:3H2O     -12.60    -14.01   -1.41  UO2SO4:3H2O
  UO2SO4:H2O       -7.94    -14.01   -6.07  UO2SO4:H2O
  UO3(alpha)       -5.51      3.13    8.64  UO3
  UO3(beta)        -5.18      3.13    8.31  UO3
  UO3(g)          -67.82      3.13   70.95  UO3
  UO3(gamma)       -4.58      3.13    7.71  UO3
  UO3:.9H2O(alpha)  -1.89      3.13    5.02  UO3:.9H2O
  UO3:2H2O         -1.71      3.13    4.84  UO3:2H2O

**For a gas, SI = log10(fugacity). Fugacity = pressure * phi / 1 atm.
  For ideal gases, phi = 1.

------------------
End of simulation.
------------------

------------------------------------
Reading input data for simulation 5.
------------------------------------

	SOLUTION 5 pH8_carbonate_rich
	    temp 25
	    pH 8
	    pe 8
	    units umol/kgw
	    U(6) 1
	    S(6) 1000 as SO4
	    C(4) 2000 as HCO3
	    Na 10 charge
	END
-------------------------------------------
Beginning of initial solution calculations.
-------------------------------------------

Initial solution 5.	pH8_carbonate_rich

-----------------------------Solution composition------------------------------

	Elements           Molality       Moles

	C(4)              2.000e-03   2.000e-03
	Na                3.971e-03   3.971e-03  Charge balance
	S(6)              1.000e-03   1.000e-03
	U(6)              1.000e-06   1.000e-06

----------------------------Description of solution----------------------------

                                       pH  =   8.000    
                                       pe  =   8.000    
                        Activity of water  =   1.000
                 Ionic strength (mol/kgw)  =   4.937e-03
                       Mass of water (kg)  =   1.000e+00
                 Total alkalinity (eq/kg)  =   1.973e-03
                       Total CO2 (mol/kg)  =   2.000e-03
                         Temperature (°C)  =  25.00
                  Electrical balance (eq)  =   3.297e-12
 Percent error, 100*(Cat-|An|)/(Cat+|An|)  =   0.00
                               Iterations  =  11
                                  Total H  = 1.110526e+02
                                  Total O  = 5.553529e+01

----------------------------Distribution of species----------------------------

                                               Log       Log       Log    mole V
   Species          Molality    Activity  Molality  Activity     Gamma   cmł/mol

   OH-             1.040e-06   9.634e-07    -5.983    -6.016    -0.033     (0)  
   H+              1.070e-08   1.000e-08    -7.970    -8.000    -0.030      0.00
   H2O             5.553e+01   9.999e-01     1.744    -0.000     0.000     18.07
C(4)          2.000e-03
   HCO3-           1.936e-03   1.795e-03    -2.713    -2.746    -0.033     (0)  
   CO2             4.160e-05   4.165e-05    -4.381    -4.380     0.001     (0)  
   CO3-2           1.074e-05   7.965e-06    -4.969    -5.099    -0.130     (0)  
   NaHCO3          9.390e-06   9.390e-06    -5.027    -5.027     0.000     (0)  
   UO2(CO3)2-2     5.057e-07   3.737e-07    -6.296    -6.428    -0.131     (0)  
   UO2(CO3)3-4     4.497e-07   1.339e-07    -6.347    -6.873    -0.526     (0)  
   NaCO3-          1.099e-07   1.019e-07    -6.959    -6.992    -0.033     (0)  
   (UO2)2CO3(OH)3-   4.312e-09   3.999e-09    -8.365    -8.398    -0.033     (0)  
   UO2CO3          2.439e-09   2.439e-09    -8.613    -8.613     0.000     (0)  
   (UO2)3(CO3)6-6   1.135e-15   7.428e-17   -14.945   -16.129    -1.184     (0)  
   (UO2)3(OH)5CO2+   1.056e-20   9.792e-21   -19.976   -20.009    -0.033     (0)  
   (UO2)3O(OH)2(HCO3)+   8.514e-21   7.896e-21   -20.070   -20.103    -0.033     (0)  
   (UO2)11(CO3)6(OH)12-2   0.000e+00   0.000e+00   -43.439   -43.570    -0.131     (0)  
H(0)          1.585e-35
   H2              7.926e-36   7.935e-36   -35.101   -35.100     0.001     (0)  
Na            3.971e-03
   Na+             3.942e-03   3.656e-03    -2.404    -2.437    -0.033     (0)  
   NaSO4-          1.888e-05   1.751e-05    -4.724    -4.757    -0.033     (0)  
   NaHCO3          9.390e-06   9.390e-06    -5.027    -5.027     0.000     (0)  
   NaCO3-          1.099e-07   1.019e-07    -6.959    -6.992    -0.033     (0)  
   NaOH            6.077e-10   6.077e-10    -9.216    -9.216     0.000     (0)  
O(0)          2.020e-22
   O2              1.010e-22   1.011e-22   -21.996   -21.995     0.001     (0)  
S(6)          1.000e-03
   SO4-2           9.811e-04   7.250e-04    -3.008    -3.140    -0.131     (0)  
   NaSO4-          1.888e-05   1.751e-05    -4.724    -4.757    -0.033     (0)  
   HSO4-           7.896e-10   7.324e-10    -9.103    -9.135    -0.033     (0)  
   UO2SO4          5.378e-14   5.378e-14   -13.269   -13.269     0.000     (0)  
   UO2(SO4)2-2     4.676e-16   3.455e-16   -15.330   -15.462    -0.131     (0)  
   H2SO4           6.909e-21   6.909e-21   -20.161   -20.161     0.000     (0)  
U(6)          1.000e-06
   UO2(CO3)2-2     5.057e-07   3.737e-07    -6.296    -6.428    -0.131     (0)  
   UO2(CO3)3-4     4.497e-07   1.339e-07    -6.347    -6.873    -0.526     (0)  
   UO2(OH)2        2.956e-08   2.956e-08    -7.529    -7.529     0.000     (0)  
   (UO2)2CO3(OH)3-   4.312e-09   3.999e-09    -8.365    -8.398    -0.033     (0)  
   UO2(OH)3-       3.946e-09   3.660e-09    -8.404    -8.437    -0.033     (0)  
   UO2CO3          2.439e-09   2.439e-09    -8.613    -8.613     0.000     (0)  
   UO2OH+          4.071e-11   3.776e-11   -10.390   -10.423    -0.033     (0)  
   UO2+2           8.231e-14   6.102e-14   -13.085   -13.215    -0.130     (0)  
   UO2SO4          5.378e-14   5.378e-14   -13.269   -13.269     0.000     (0)  
   UO2(OH)4-2      7.718e-15   5.703e-15   -14.112   -14.244    -0.131     (0)  
   (UO2)3(OH)7-    2.177e-15   2.019e-15   -14.662   -14.695    -0.033     (0)  
   (UO2)3(CO3)6-6   1.135e-15   7.428e-17   -14.945   -16.129    -1.184     (0)  
   (UO2)3(OH)5+    6.236e-16   5.783e-16   -15.205   -15.238    -0.033     (0)  
   UO2(SO4)2-2     4.676e-16   3.455e-16   -15.330   -15.462    -0.131     (0)  
   (UO2)2(OH)2+2   1.167e-16   8.654e-17   -15.933   -16.063    -0.130     (0)  
   (UO2)4(OH)7+    1.672e-19   1.551e-19   -18.777   -18.809    -0.033     (0)  
   (UO2)3(OH)4+2   3.607e-20   2.674e-20   -19.443   -19.573    -0.130     (0)  
   (UO2)3(OH)5CO2+   1.056e-20   9.792e-21   -19.976   -20.009    -0.033     (0)  
   (UO2)3O(OH)2(HCO3)+   8.514e-21   7.896e-21   -20.070   -20.103    -0.033     (0)  
   (UO2)2OH+3      1.423e-21   7.305e-22   -20.847   -21.136    -0.290     (0)  
   (UO2)11(CO3)6(OH)12-2   0.000e+00   0.000e+00   -43.439   -43.570    -0.131     (0)  

------------------------------Saturation indices-------------------------------

  Phase               SI** log IAP   log K(298 K,   1 atm)

  Burkeite        -25.13    -15.65    9.49  Na6CO3(SO4)2
  C               -52.90     11.25   64.15  C
  C(g)           -170.52     11.25  181.77  C
  CO2(g)           -2.92    -10.75   -7.83  CO2
  H2(g)           -32.00    -35.10   -3.10  H2
  H2O(g)           -1.59     -0.00    1.59  H2O
  Ice              -0.14     -0.00    0.14  H2O
  Mirabilite       -6.86     -8.01   -1.15  Na2SO4:10H2O
  Na              -56.31     11.06   67.37  Na
  Na(g)           -69.80     11.06   80.86  Na
  Na2CO3          -10.78      0.38   11.16  Na2CO3
  Na2CO3:7H2O      -9.56      0.38    9.94  Na2CO3:7H2O
  Na2O            -56.29     11.13   67.42  Na2O
  Na2U2O7          -5.89     16.70   22.59  Na2U2O7
  Na2UO4(alpha)   -16.10     13.91   30.02  Na2UO4
  Na3H(SO4)2      -20.70    -21.59   -0.89  Na3H(SO4)2
  Na4UO2(CO3)3    -11.24     -7.20    4.04  Na4UO2(CO3)3
  Nahcolite        -5.04     -5.18   -0.14  NaHCO3
  Natron           -9.21      0.38    9.59  Na2CO3:10H2O
  O2(g)           -19.10    -22.00   -2.89  O2
  Rutherfordine    -3.84     -7.96   -4.12  UO2CO3
  Schoepite        -2.05      2.79    4.83  UO3:2H2O
  Schoepite-dehy(.393)  -3.94      2.79    6.72  UO3:.393H2O
  Schoepite-dehy(.648)  -3.42      2.79    6.21  UO3:.648H2O
  Schoepite-dehy(.85)  -2.31      2.79    5.10  UO3:.85H2O
  Schoepite-dehy(.9)  -2.23      2.79    5.02  UO3:.9H2O
  Schoepite-dehy(1.0)  -2.32      2.79    5.10  UO3:H2O
  Thenardite       -7.66     -8.01   -0.36  Na2SO4
  Thermonatrite   -10.56      0.38   10.94  Na2CO3:H2O
  U              -176.99     35.78  212.77  U
  U(g)           -262.54     35.78  298.32  U
  UO(g)          -186.87     24.78  211.65  UO
  UO2(g)         -111.81     13.78  125.60  UO2
  UO2(OH)2(beta)   -2.16      2.79    4.95  UO2(OH)2
  UO2CO3           -3.83     -7.96   -4.13  UO2CO3
  UO2SO4          -18.28    -16.35    1.93  UO2SO4
  UO2SO4:2.5H2O   -14.85    -16.35   -1.50  UO2SO4:2.5H2O
  UO2SO4:3.5H2O   -14.86    -16.35   -1.49  UO2SO4:3.5H2O
  UO2SO4:3H2O     -14.94    -16.35   -1.41  UO2SO4:3H2O
  UO2SO4:H2O      -10.29    -16.35   -6.07  UO2SO4:H2O
  UO3(alpha)       -5.85      2.79    8.64  UO3
  UO3(beta)        -5.53      2.79    8.31  UO3
  UO3(g)          -68.16      2.79   70.95  UO3
  UO3(gamma)       -4.92      2.79    7.71  UO3
  UO3:.9H2O(alpha)  -2.23      2.79    5.02  UO3:.9H2O
  UO3:2H2O         -2.05      2.79    4.84  UO3:2H2O

**For a gas, SI = log10(fugacity). Fugacity = pressure * phi / 1 atm.
  For ideal gases, phi = 1.

------------------
End of simulation.
------------------

------------------------------------
Reading input data for simulation 6.
------------------------------------

----------------------------------
End of Run after 0.105846 Seconds.
----------------------------------

